64
Model 1
Ti 5.37216 6.63961 3.39251
Ti 4.82236 9.29597 2.54438
Ti 5.37216 1.77005 0.848128
Ti 4.82236 4.42641 4.26443e-17
Ti 6.77272 6.19646 0.848128
Ti 6.07244 8.85282 6.11209e-16
Ti 6.77272 1.3269 3.39251
Ti 6.07244 3.98325 2.54438
Ti 8.17329 5.75331 3.39251
Ti 7.47301 8.40966 2.54438
Ti 8.17329 0.883745 0.848128
Ti 7.47301 3.5401 3.26926e-16
Ti 9.57385 5.31015 0.848128
Ti 8.87357 7.96651 6.1121e-16
Ti 9.57385 0.440592 3.39251
Ti 8.87357 3.09695 2.54438
Ti 10.9744 4.867 3.39251
Ti 10.2741 7.52336 2.54438
Ti 12.375 9.29341 3.39251
Ti 10.9744 -0.00256149 0.848128
Ti 10.2741 2.6538 3.26926e-16
Ti 12.375 4.42385 0.848128
Ti 11.6747 7.0802 6.11207e-16
Ti 13.7755 8.85025 0.848128
Ti 11.6747 2.21064 2.54438
Ti 13.7755 3.98069 3.39251
Ti 13.0753 6.63705 2.54438
Ti 15.1761 8.4071 3.39251
Ti 13.0753 1.76749 3.26925e-16
Ti 15.1761 3.53754 0.848128
Ti 14.4758 6.1939 6.11207e-16
Ti 14.4758 1.32434 2.54438
Ti 15.7267 5.75074 2.54438
Ti 15.7267 0.881183 3.26926e-16
Ti 4.27256 6.63961 1.69626
Ti 4.27256 1.77005 -0.848128
Ti 2.87199 6.19646 -0.848128
Ti 3.57228 8.85282 3.26929e-16
Ti 2.87199 1.3269 1.69626
Ti 3.57228 3.98325 2.54438
Ti 1.47143 5.75331 1.69626
Ti 2.17171 8.40966 2.54438
Ti 1.47143 0.883745 -0.848128
Ti 2.17171 3.5401 4.26462e-17
Ti 0.0708681 5.31015 -0.848128
Ti 0.77115 7.96651 3.26931e-16
Ti 0.0708681 0.440592 1.69626
Ti 0.77115 3.09695 2.54438
Ti 20.4791 4.867 1.69626
Ti 21.1794 7.52336 2.54438
Ti 19.0785 9.29341 1.69626
Ti 20.4791 -0.00256149 -0.848128
Ti 21.1794 2.6538 3.26925e-16
Ti 19.0785 4.42385 -0.848128
Ti 19.7788 7.0802 6.11206e-16
Ti 17.678 8.85025 -0.848128
Ti 19.7788 2.21064 2.54438
Ti 17.678 3.98069 1.69626
Ti 18.3782 6.63705 2.54438
Ti 16.2774 8.4071 1.69626
Ti 18.3782 1.76749 3.26925e-16
Ti 16.2774 3.53754 -0.848128
Ti 16.9777 6.1939 6.11209e-16
Ti 16.9777 1.32434 2.54438
64
Model 2
Ti 5.37216 6.63961 3.39251
Ti 4.82236 9.29597 2.54438
Ti 5.37216 1.77005 0.848128
Ti 4.82236 4.42641 4.26443e-17
Ti 6.77272 6.19646 0.848128
Ti 6.07244 8.85282 6.11209e-16
Ti 6.77272 1.3269 3.39251
Ti 6.07244 3.98325 2.54438
Ti 8.17329 5.75331 3.39251
Ti 7.47301 8.40966 2.54438
Ti 8.17329 0.883745 0.848128
Ti 7.47301 3.5401 3.26926e-16
Ti 9.57385 5.31015 0.848128
Ti 8.87357 7.96651 6.1121e-16
Ti 9.57385 0.440592 3.39251
Ti 8.87357 3.09695 2.54438
Ti 10.9744 4.867 3.39251
Ti 10.2741 7.52336 2.54438
Ti 12.375 9.29341 3.39251
Ti 10.9744 -0.00256149 0.848128
Ti 10.2741 2.6538 3.26926e-16
Ti 12.375 4.42385 0.848128
Ti 11.6747 7.0802 6.11207e-16
Ti 13.7755 8.85025 0.848128
Ti 11.6747 2.21064 2.54438
Ti 13.7755 3.98069 3.39251
Ti 13.0753 6.63705 2.54438
Ti 15.1761 8.4071 3.39251
Ti 13.0753 1.76749 3.26925e-16
Ti 15.1761 3.53754 0.848128
Ti 14.4758 6.1939 6.11207e-16
Ti 14.4758 1.32434 2.54438
Ti 15.7267 5.75074 2.54438
Ti 15.7267 0.881183 3.26926e-16
Ti 4.27256 6.63961 1.69626
Ti 4.27256 1.77005 -0.848128
Ti 2.87199 6.19646 -0.848128
Ti 3.57228 8.85282 3.26929e-16
Ti 2.87199 1.3269 1.69626
Ti 3.57228 3.98325 2.54438
Ti 1.47143 5.75331 1.69626
Ti 2.17171 8.40966 2.54438
Ti 1.47143 0.883745 -0.848128
Ti 2.17171 3.5401 4.26462e-17
Ti 0.0708681 5.31015 -0.848128
Ti 0.77115 7.96651 3.26931e-16
Ti 0.0708681 0.440592 1.69626
Ti 0.77115 3.09695 2.54438
Ti 20.4791 4.867 1.69626
Ti 21.1794 7.52336 2.54438
Ti 19.0785 9.29341 1.69626
Ti 20.4791 -0.00256149 -0.848128
Ti 21.1794 2.6538 3.26925e-16
Ti 19.0785 4.42385 -0.848128
Ti 19.7788 7.0802 6.11206e-16
Ti 17.678 8.85025 -0.848128
Ti 19.7788 2.21064 2.54438
Ti 17.678 3.98069 1.69626
Ti 18.3782 6.63705 2.54438
Ti 16.2774 8.4071 1.69626
Ti 18.3782 1.76749 3.26925e-16
Ti 16.2774 3.53754 -0.848128
Ti 16.9777 6.1939 6.11209e-16
Ti 16.9777 1.32434 2.54438
