96
Model 1
Ti 0 0 0
Ti 1.7177 0 2.418
Ti 0 0 4.836
Ti 1.7177 0 7.254
Ti 0 0 9.672
Ti 1.7177 0 12.09
Ti 0 2.97515 0
Ti 1.7177 2.97515 2.418
Ti 0 2.97515 4.836
Ti 1.7177 2.97515 7.254
Ti 0 2.97515 9.672
Ti 1.7177 2.97515 12.09
Ti 0 5.95029 0
Ti 1.7177 5.95029 2.418
Ti 0 5.95029 4.836
Ti 1.7177 5.95029 7.254
Ti 0 5.95029 9.672
Ti 1.7177 5.95029 12.09
Ti 0 8.92544 0
Ti 1.7177 8.92544 2.418
Ti 0 8.92544 4.836
Ti 1.7177 8.92544 7.254
Ti 0 8.92544 9.672
Ti 1.7177 8.92544 12.09
Ti 2.57655 -1.48757 0
Ti 4.29425 -1.48757 2.418
Ti 2.57655 -1.48757 4.836
Ti 4.29425 -1.48757 7.254
Ti 2.57655 -1.48757 9.672
Ti 4.29425 -1.48757 12.09
Ti 2.57655 1.48757 0
Ti 4.29425 1.48757 2.418
Ti 2.57655 1.48757 4.836
Ti 4.29425 1.48757 7.254
Ti 2.57655 1.48757 9.672
Ti 4.29425 1.48757 12.09
Ti 2.57655 4.46272 0
Ti 4.29425 4.46272 2.418
Ti 2.57655 4.46272 4.836
Ti 4.29425 4.46272 7.254
Ti 2.57655 4.46272 9.672
Ti 4.29425 4.46272 12.09
Ti 2.57655 7.43787 0
Ti 4.29425 7.43787 2.418
Ti 2.57655 7.43787 4.836
Ti 4.29425 7.43787 7.254
Ti 2.57655 7.43787 9.672
Ti 4.29425 7.43787 12.09
Ti 5.15311 -2.97515 0
Ti 6.87081 -2.97515 2.418
Ti 5.15311 -2.97515 4.836
Ti 6.87081 -2.97515 7.254
Ti 5.15311 -2.97515 9.672
Ti 6.87081 -2.97515 12.09
Ti 5.15311 0 0
Ti 6.87081 0 2.418
Ti 5.15311 0 4.836
Ti 6.87081 0 7.254
Ti 5.15311 0 9.672
Ti 6.87081 0 12.09
Ti 5.15311 2.97515 0
Ti 6.87081 2.97515 2.418
Ti 5.15311 2.97515 4.836
Ti 6.87081 2.97515 7.254
Ti 5.15311 2.97515 9.672
Ti 6.87081 2.97515 12.09
Ti 5.15311 5.95029 0
Ti 6.87081 5.95029 2.418
Ti 5.15311 5.95029 4.836
Ti 6.87081 5.95029 7.254
Ti 5.15311 5.95029 9.672
Ti 6.87081 5.95029 12.09
Ti 7.72966 -4.46272 0
Ti 9.44736 -4.46272 2.418
Ti 7.72966 -4.46272 4.836
Ti 9.44736 -4.46272 7.254
Ti 7.72966 -4.46272 9.672
Ti 9.44736 -4.46272 12.09
Ti 7.72966 -1.48757 0
Ti 9.44736 -1.48757 2.418
Ti 7.72966 -1.48757 4.836
Ti 9.44736 -1.48757 7.254
Ti 7.72966 -1.48757 9.672
Ti 9.44736 -1.48757 12.09
Ti 7.72966 1.48757 0
Ti 9.44736 1.48757 2.418
Ti 7.72966 1.48757 4.836
Ti 9.44736 1.48757 7.254
Ti 7.72966 1.48757 9.672
Ti 9.44736 1.48757 12.09
Ti 7.72966 4.46272 0
Ti 9.44736 4.46272 2.418
Ti 7.72966 4.46272 4.836
Ti 9.44736 4.46272 7.254
Ti 7.72966 4.46272 9.672
Ti 9.44736 4.46272 12.09
96
Model 2
Ti 0 0 0
Ti 1.7177 0 2.418
Ti 0 0 4.836
Ti 1.7177 0 7.254
Ti 0 0 9.672
Ti 1.7177 0 12.09
Ti 0 2.97515 0
Ti 1.7177 2.97515 2.418
Ti 0 2.97515 4.836
Ti 1.7177 2.97515 7.254
Ti 0 2.97515 9.672
Ti 1.7177 2.97515 12.09
Ti 0 5.95029 0
Ti 1.7177 5.95029 2.418
Ti 0 5.95029 4.836
Ti 1.7177 5.95029 7.254
Ti 0 5.95029 9.672
Ti 1.7177 5.95029 12.09
Ti 0 8.92544 0
Ti 1.7177 8.92544 2.418
Ti 0 8.92544 4.836
Ti 1.7177 8.92544 7.254
Ti 0 8.92544 9.672
Ti 1.7177 8.92544 12.09
Ti 2.57655 -1.48757 0
Ti 4.29425 -1.48757 2.418
Ti 2.57655 -1.48757 4.836
Ti 4.29425 -1.48757 7.254
Ti 2.57655 -1.48757 9.672
Ti 4.29425 -1.48757 12.09
Ti 2.57655 1.48757 0
Ti 4.29425 1.48757 2.418
Ti 2.57655 1.48757 4.836
Ti 4.29425 1.48757 7.254
Ti 2.57655 1.48757 9.672
Ti 4.29425 1.48757 12.09
Ti 2.57655 4.46272 0
Ti 4.29425 4.46272 2.418
Ti 2.57655 4.46272 4.836
Ti 4.29425 4.46272 7.254
Ti 2.57655 4.46272 9.672
Ti 4.29425 4.46272 12.09
Ti 2.57655 7.43787 0
Ti 4.29425 7.43787 2.418
Ti 2.57655 7.43787 4.836
Ti 4.29425 7.43787 7.254
Ti 2.57655 7.43787 9.672
Ti 4.29425 7.43787 12.09
Ti 5.15311 -2.97515 0
Ti 6.87081 -2.97515 2.418
Ti 5.15311 -2.97515 4.836
Ti 6.87081 -2.97515 7.254
Ti 5.15311 -2.97515 9.672
Ti 6.87081 -2.97515 12.09
Ti 5.15311 0 0
Ti 6.87081 0 2.418
Ti 5.15311 0 4.836
Ti 6.87081 0 7.254
Ti 5.15311 0 9.672
Ti 6.87081 0 12.09
Ti 5.15311 2.97515 0
Ti 6.87081 2.97515 2.418
Ti 5.15311 2.97515 4.836
Ti 6.87081 2.97515 7.254
Ti 5.15311 2.97515 9.672
Ti 6.87081 2.97515 12.09
Ti 5.15311 5.95029 0
Ti 6.87081 5.95029 2.418
Ti 5.15311 5.95029 4.836
Ti 6.87081 5.95029 7.254
Ti 5.15311 5.95029 9.672
Ti 6.87081 5.95029 12.09
Ti 7.72966 -4.46272 0
Ti 9.44736 -4.46272 2.418
Ti 7.72966 -4.46272 4.836
Ti 9.44736 -4.46272 7.254
Ti 7.72966 -4.46272 9.672
Ti 9.44736 -4.46272 12.09
Ti 7.72966 -1.48757 0
Ti 9.44736 -1.48757 2.418
Ti 7.72966 -1.48757 4.836
Ti 9.44736 -1.48757 7.254
Ti 7.72966 -1.48757 9.672
Ti 9.44736 -1.48757 12.09
Ti 7.72966 1.48757 0
Ti 9.44736 1.48757 2.418
Ti 7.72966 1.48757 4.836
Ti 9.44736 1.48757 7.254
Ti 7.72966 1.48757 9.672
Ti 9.44736 1.48757 12.09
Ti 7.72966 4.46272 0
Ti 9.44736 4.46272 2.418
Ti 7.72966 4.46272 4.836
Ti 9.44736 4.46272 7.254
Ti 7.72966 4.46272 9.672
Ti 9.44736 4.46272 12.09
