96
Model 1
Ti 0 0 0
Ti 1.7629 0 2.232
Ti 0 0 4.464
Ti 1.7629 0 6.696
Ti 0 0 8.928
Ti 1.7629 0 11.16
Ti 0 3.05344 0
Ti 1.7629 3.05344 2.232
Ti 0 3.05344 4.464
Ti 1.7629 3.05344 6.696
Ti 0 3.05344 8.928
Ti 1.7629 3.05344 11.16
Ti 0 6.10688 0
Ti 1.7629 6.10688 2.232
Ti 0 6.10688 4.464
Ti 1.7629 6.10688 6.696
Ti 0 6.10688 8.928
Ti 1.7629 6.10688 11.16
Ti 0 9.16032 0
Ti 1.7629 9.16032 2.232
Ti 0 9.16032 4.464
Ti 1.7629 9.16032 6.696
Ti 0 9.16032 8.928
Ti 1.7629 9.16032 11.16
Ti 2.64436 -1.52672 0
Ti 4.40726 -1.52672 2.232
Ti 2.64436 -1.52672 4.464
Ti 4.40726 -1.52672 6.696
Ti 2.64436 -1.52672 8.928
Ti 4.40726 -1.52672 11.16
Ti 2.64436 1.52672 0
Ti 4.40726 1.52672 2.232
Ti 2.64436 1.52672 4.464
Ti 4.40726 1.52672 6.696
Ti 2.64436 1.52672 8.928
Ti 4.40726 1.52672 11.16
Ti 2.64436 4.58016 0
Ti 4.40726 4.58016 2.232
Ti 2.64436 4.58016 4.464
Ti 4.40726 4.58016 6.696
Ti 2.64436 4.58016 8.928
Ti 4.40726 4.58016 11.16
Ti 2.64436 7.6336 0
Ti 4.40726 7.6336 2.232
Ti 2.64436 7.6336 4.464
Ti 4.40726 7.6336 6.696
Ti 2.64436 7.6336 8.928
Ti 4.40726 7.6336 11.16
Ti 5.28871 -3.05344 0
Ti 7.05162 -3.05344 2.232
Ti 5.28871 -3.05344 4.464
Ti 7.05162 -3.05344 6.696
Ti 5.28871 -3.05344 8.928
Ti 7.05162 -3.05344 11.16
Ti 5.28871 0 0
Ti 7.05162 0 2.232
Ti 5.28871 0 4.464
Ti 7.05162 0 6.696
Ti 5.28871 0 8.928
Ti 7.05162 0 11.16
Ti 5.28871 3.05344 0
Ti 7.05162 3.05344 2.232
Ti 5.28871 3.05344 4.464
Ti 7.05162 3.05344 6.696
Ti 5.28871 3.05344 8.928
Ti 7.05162 3.05344 11.16
Ti 5.28871 6.10688 0
Ti 7.05162 6.10688 2.232
Ti 5.28871 6.10688 4.464
Ti 7.05162 6.10688 6.696
Ti 5.28871 6.10688 8.928
Ti 7.05162 6.10688 11.16
Ti 7.93307 -4.58016 0
Ti 9.69597 -4.58016 2.232
Ti 7.93307 -4.58016 4.464
Ti 9.69597 -4.58016 6.696
Ti 7.93307 -4.58016 8.928
Ti 9.69597 -4.58016 11.16
Ti 7.93307 -1.52672 0
Ti 9.69597 -1.52672 2.232
Ti 7.93307 -1.52672 4.464
Ti 9.69597 -1.52672 6.696
Ti 7.93307 -1.52672 8.928
Ti 9.69597 -1.52672 11.16
Ti 7.93307 1.52672 0
Ti 9.69597 1.52672 2.232
Ti 7.93307 1.52672 4.464
Ti 9.69597 1.52672 6.696
Ti 7.93307 1.52672 8.928
Ti 9.69597 1.52672 11.16
Ti 7.93307 4.58016 0
Ti 9.69597 4.58016 2.232
Ti 7.93307 4.58016 4.464
Ti 9.69597 4.58016 6.696
Ti 7.93307 4.58016 8.928
Ti 9.69597 4.58016 11.16
96
Model 2
Ti 0 0 0
Ti 1.7629 0 2.232
Ti 0 0 4.464
Ti 1.7629 0 6.696
Ti 0 0 8.928
Ti 1.7629 0 11.16
Ti 0 3.05344 0
Ti 1.7629 3.05344 2.232
Ti 0 3.05344 4.464
Ti 1.7629 3.05344 6.696
Ti 0 3.05344 8.928
Ti 1.7629 3.05344 11.16
Ti 0 6.10688 0
Ti 1.7629 6.10688 2.232
Ti 0 6.10688 4.464
Ti 1.7629 6.10688 6.696
Ti 0 6.10688 8.928
Ti 1.7629 6.10688 11.16
Ti 0 9.16032 0
Ti 1.7629 9.16032 2.232
Ti 0 9.16032 4.464
Ti 1.7629 9.16032 6.696
Ti 0 9.16032 8.928
Ti 1.7629 9.16032 11.16
Ti 2.64436 -1.52672 0
Ti 4.40726 -1.52672 2.232
Ti 2.64436 -1.52672 4.464
Ti 4.40726 -1.52672 6.696
Ti 2.64436 -1.52672 8.928
Ti 4.40726 -1.52672 11.16
Ti 2.64436 1.52672 0
Ti 4.40726 1.52672 2.232
Ti 2.64436 1.52672 4.464
Ti 4.40726 1.52672 6.696
Ti 2.64436 1.52672 8.928
Ti 4.40726 1.52672 11.16
Ti 2.64436 4.58016 0
Ti 4.40726 4.58016 2.232
Ti 2.64436 4.58016 4.464
Ti 4.40726 4.58016 6.696
Ti 2.64436 4.58016 8.928
Ti 4.40726 4.58016 11.16
Ti 2.64436 7.6336 0
Ti 4.40726 7.6336 2.232
Ti 2.64436 7.6336 4.464
Ti 4.40726 7.6336 6.696
Ti 2.64436 7.6336 8.928
Ti 4.40726 7.6336 11.16
Ti 5.28871 -3.05344 0
Ti 7.05162 -3.05344 2.232
Ti 5.28871 -3.05344 4.464
Ti 7.05162 -3.05344 6.696
Ti 5.28871 -3.05344 8.928
Ti 7.05162 -3.05344 11.16
Ti 5.28871 0 0
Ti 7.05162 0 2.232
Ti 5.28871 0 4.464
Ti 7.05162 0 6.696
Ti 5.28871 0 8.928
Ti 7.05162 0 11.16
Ti 5.28871 3.05344 0
Ti 7.05162 3.05344 2.232
Ti 5.28871 3.05344 4.464
Ti 7.05162 3.05344 6.696
Ti 5.28871 3.05344 8.928
Ti 7.05162 3.05344 11.16
Ti 5.28871 6.10688 0
Ti 7.05162 6.10688 2.232
Ti 5.28871 6.10688 4.464
Ti 7.05162 6.10688 6.696
Ti 5.28871 6.10688 8.928
Ti 7.05162 6.10688 11.16
Ti 7.93307 -4.58016 0
Ti 9.69597 -4.58016 2.232
Ti 7.93307 -4.58016 4.464
Ti 9.69597 -4.58016 6.696
Ti 7.93307 -4.58016 8.928
Ti 9.69597 -4.58016 11.16
Ti 7.93307 -1.52672 0
Ti 9.69597 -1.52672 2.232
Ti 7.93307 -1.52672 4.464
Ti 9.69597 -1.52672 6.696
Ti 7.93307 -1.52672 8.928
Ti 9.69597 -1.52672 11.16
Ti 7.93307 1.52672 0
Ti 9.69597 1.52672 2.232
Ti 7.93307 1.52672 4.464
Ti 9.69597 1.52672 6.696
Ti 7.93307 1.52672 8.928
Ti 9.69597 1.52672 11.16
Ti 7.93307 4.58016 0
Ti 9.69597 4.58016 2.232
Ti 7.93307 4.58016 4.464
Ti 9.69597 4.58016 6.696
Ti 7.93307 4.58016 8.928
Ti 9.69597 4.58016 11.16
