96
Model 1
Ti 0 0 0
Ti 1.7629 0 2.356
Ti 0 0 4.712
Ti 1.7629 0 7.068
Ti 0 0 9.424
Ti 1.7629 0 11.78
Ti 0 3.05344 0
Ti 1.7629 3.05344 2.356
Ti 0 3.05344 4.712
Ti 1.7629 3.05344 7.068
Ti 0 3.05344 9.424
Ti 1.7629 3.05344 11.78
Ti 0 6.10688 0
Ti 1.7629 6.10688 2.356
Ti 0 6.10688 4.712
Ti 1.7629 6.10688 7.068
Ti 0 6.10688 9.424
Ti 1.7629 6.10688 11.78
Ti 0 9.16032 0
Ti 1.7629 9.16032 2.356
Ti 0 9.16032 4.712
Ti 1.7629 9.16032 7.068
Ti 0 9.16032 9.424
Ti 1.7629 9.16032 11.78
Ti 2.64436 -1.52672 0
Ti 4.40726 -1.52672 2.356
Ti 2.64436 -1.52672 4.712
Ti 4.40726 -1.52672 7.068
Ti 2.64436 -1.52672 9.424
Ti 4.40726 -1.52672 11.78
Ti 2.64436 1.52672 0
Ti 4.40726 1.52672 2.356
Ti 2.64436 1.52672 4.712
Ti 4.40726 1.52672 7.068
Ti 2.64436 1.52672 9.424
Ti 4.40726 1.52672 11.78
Ti 2.64436 4.58016 0
Ti 4.40726 4.58016 2.356
Ti 2.64436 4.58016 4.712
Ti 4.40726 4.58016 7.068
Ti 2.64436 4.58016 9.424
Ti 4.40726 4.58016 11.78
Ti 2.64436 7.6336 0
Ti 4.40726 7.6336 2.356
Ti 2.64436 7.6336 4.712
Ti 4.40726 7.6336 7.068
Ti 2.64436 7.6336 9.424
Ti 4.40726 7.6336 11.78
Ti 5.28871 -3.05344 0
Ti 7.05162 -3.05344 2.356
Ti 5.28871 -3.05344 4.712
Ti 7.05162 -3.05344 7.068
Ti 5.28871 -3.05344 9.424
Ti 7.05162 -3.05344 11.78
Ti 5.28871 0 0
Ti 7.05162 0 2.356
Ti 5.28871 0 4.712
Ti 7.05162 0 7.068
Ti 5.28871 0 9.424
Ti 7.05162 0 11.78
Ti 5.28871 3.05344 0
Ti 7.05162 3.05344 2.356
Ti 5.28871 3.05344 4.712
Ti 7.05162 3.05344 7.068
Ti 5.28871 3.05344 9.424
Ti 7.05162 3.05344 11.78
Ti 5.28871 6.10688 0
Ti 7.05162 6.10688 2.356
Ti 5.28871 6.10688 4.712
Ti 7.05162 6.10688 7.068
Ti 5.28871 6.10688 9.424
Ti 7.05162 6.10688 11.78
Ti 7.93307 -4.58016 0
Ti 9.69597 -4.58016 2.356
Ti 7.93307 -4.58016 4.712
Ti 9.69597 -4.58016 7.068
Ti 7.93307 -4.58016 9.424
Ti 9.69597 -4.58016 11.78
Ti 7.93307 -1.52672 0
Ti 9.69597 -1.52672 2.356
Ti 7.93307 -1.52672 4.712
Ti 9.69597 -1.52672 7.068
Ti 7.93307 -1.52672 9.424
Ti 9.69597 -1.52672 11.78
Ti 7.93307 1.52672 0
Ti 9.69597 1.52672 2.356
Ti 7.93307 1.52672 4.712
Ti 9.69597 1.52672 7.068
Ti 7.93307 1.52672 9.424
Ti 9.69597 1.52672 11.78
Ti 7.93307 4.58016 0
Ti 9.69597 4.58016 2.356
Ti 7.93307 4.58016 4.712
Ti 9.69597 4.58016 7.068
Ti 7.93307 4.58016 9.424
Ti 9.69597 4.58016 11.78
96
Model 2
Ti 0 0 0
Ti 1.7629 0 2.356
Ti 0 0 4.712
Ti 1.7629 0 7.068
Ti 0 0 9.424
Ti 1.7629 0 11.78
Ti 0 3.05344 0
Ti 1.7629 3.05344 2.356
Ti 0 3.05344 4.712
Ti 1.7629 3.05344 7.068
Ti 0 3.05344 9.424
Ti 1.7629 3.05344 11.78
Ti 0 6.10688 0
Ti 1.7629 6.10688 2.356
Ti 0 6.10688 4.712
Ti 1.7629 6.10688 7.068
Ti 0 6.10688 9.424
Ti 1.7629 6.10688 11.78
Ti 0 9.16032 0
Ti 1.7629 9.16032 2.356
Ti 0 9.16032 4.712
Ti 1.7629 9.16032 7.068
Ti 0 9.16032 9.424
Ti 1.7629 9.16032 11.78
Ti 2.64436 -1.52672 0
Ti 4.40726 -1.52672 2.356
Ti 2.64436 -1.52672 4.712
Ti 4.40726 -1.52672 7.068
Ti 2.64436 -1.52672 9.424
Ti 4.40726 -1.52672 11.78
Ti 2.64436 1.52672 0
Ti 4.40726 1.52672 2.356
Ti 2.64436 1.52672 4.712
Ti 4.40726 1.52672 7.068
Ti 2.64436 1.52672 9.424
Ti 4.40726 1.52672 11.78
Ti 2.64436 4.58016 0
Ti 4.40726 4.58016 2.356
Ti 2.64436 4.58016 4.712
Ti 4.40726 4.58016 7.068
Ti 2.64436 4.58016 9.424
Ti 4.40726 4.58016 11.78
Ti 2.64436 7.6336 0
Ti 4.40726 7.6336 2.356
Ti 2.64436 7.6336 4.712
Ti 4.40726 7.6336 7.068
Ti 2.64436 7.6336 9.424
Ti 4.40726 7.6336 11.78
Ti 5.28871 -3.05344 0
Ti 7.05162 -3.05344 2.356
Ti 5.28871 -3.05344 4.712
Ti 7.05162 -3.05344 7.068
Ti 5.28871 -3.05344 9.424
Ti 7.05162 -3.05344 11.78
Ti 5.28871 0 0
Ti 7.05162 0 2.356
Ti 5.28871 0 4.712
Ti 7.05162 0 7.068
Ti 5.28871 0 9.424
Ti 7.05162 0 11.78
Ti 5.28871 3.05344 0
Ti 7.05162 3.05344 2.356
Ti 5.28871 3.05344 4.712
Ti 7.05162 3.05344 7.068
Ti 5.28871 3.05344 9.424
Ti 7.05162 3.05344 11.78
Ti 5.28871 6.10688 0
Ti 7.05162 6.10688 2.356
Ti 5.28871 6.10688 4.712
Ti 7.05162 6.10688 7.068
Ti 5.28871 6.10688 9.424
Ti 7.05162 6.10688 11.78
Ti 7.93307 -4.58016 0
Ti 9.69597 -4.58016 2.356
Ti 7.93307 -4.58016 4.712
Ti 9.69597 -4.58016 7.068
Ti 7.93307 -4.58016 9.424
Ti 9.69597 -4.58016 11.78
Ti 7.93307 -1.52672 0
Ti 9.69597 -1.52672 2.356
Ti 7.93307 -1.52672 4.712
Ti 9.69597 -1.52672 7.068
Ti 7.93307 -1.52672 9.424
Ti 9.69597 -1.52672 11.78
Ti 7.93307 1.52672 0
Ti 9.69597 1.52672 2.356
Ti 7.93307 1.52672 4.712
Ti 9.69597 1.52672 7.068
Ti 7.93307 1.52672 9.424
Ti 9.69597 1.52672 11.78
Ti 7.93307 4.58016 0
Ti 9.69597 4.58016 2.356
Ti 7.93307 4.58016 4.712
Ti 9.69597 4.58016 7.068
Ti 7.93307 4.58016 9.424
Ti 9.69597 4.58016 11.78
