44
Model 1
Ti 0.691471 6.9991 0.837389
Ti 0.691471 2.18731 3.34956
Ti 0 4.8118 2.51217
Ti 2.07441 6.56192 3.34956
Ti 1.38294 9.18641 2.51217
Ti 0 0 0
Ti 2.07441 1.75012 0.837389
Ti 1.38294 4.37461 2.80934e-16
Ti 3.45735 6.12473 0.837389
Ti 2.76588 8.74922 5.61868e-16
Ti 3.45735 1.31293 3.34956
Ti 2.76588 3.93742 2.51217
Ti 4.84029 5.68754 3.34956
Ti 4.14882 8.31203 2.51217
Ti 4.84029 0.875741 0.837389
Ti 4.14882 3.50023 2.80934e-16
Ti 6.22324 5.25035 0.837389
Ti 5.53177 7.87485 5.61868e-16
Ti 6.22324 0.438554 3.34956
Ti 5.53177 3.06305 2.51217
Ti 7.60618 4.81316 3.34956
Ti 6.91471 7.43766 2.51217
Ti 8.98912 9.18777 3.34956
Ti 7.60618 0.00136564 0.837389
Ti 6.91471 2.62586 2.80934e-16
Ti 8.98912 4.37598 0.837389
Ti 8.29765 7.00047 5.61868e-16
Ti 10.3721 8.75059 0.837389
Ti 8.29765 2.18867 2.51217
Ti 10.3721 3.93879 3.34956
Ti 9.68059 6.56328 2.51217
Ti 11.755 8.3134 3.34956
Ti 9.68059 1.75148 2.80934e-16
Ti 11.755 3.5016 0.837389
Ti 11.0635 6.12609 5.61868e-16
Ti 13.1379 7.87621 0.837389
Ti 11.0635 1.3143 2.51217
Ti 13.1379 3.06441 3.34956
Ti 12.4465 5.68891 2.51217
Ti 14.5209 7.43902 3.34956
Ti 12.4465 0.877107 2.80934e-16
Ti 14.5209 2.62722 0.837389
Ti 13.8294 5.25172 5.61868e-16
Ti 13.8294 0.439919 2.51217
44
Model 2
Ti 0.691471 6.9991 0.837389
Ti 0.691471 2.18731 3.34956
Ti 0 4.8118 2.51217
Ti 2.07441 6.56192 3.34956
Ti 1.38294 9.18641 2.51217
Ti 0 0 0
Ti 2.07441 1.75012 0.837389
Ti 1.38294 4.37461 2.80934e-16
Ti 3.45735 6.12473 0.837389
Ti 2.76588 8.74922 5.61868e-16
Ti 3.45735 1.31293 3.34956
Ti 2.76588 3.93742 2.51217
Ti 4.84029 5.68754 3.34956
Ti 4.14882 8.31203 2.51217
Ti 4.84029 0.875741 0.837389
Ti 4.14882 3.50023 2.80934e-16
Ti 6.22324 5.25035 0.837389
Ti 5.53177 7.87485 5.61868e-16
Ti 6.22324 0.438554 3.34956
Ti 5.53177 3.06305 2.51217
Ti 7.60618 4.81316 3.34956
Ti 6.91471 7.43766 2.51217
Ti 8.98912 9.18777 3.34956
Ti 7.60618 0.00136564 0.837389
Ti 6.91471 2.62586 2.80934e-16
Ti 8.98912 4.37598 0.837389
Ti 8.29765 7.00047 5.61868e-16
Ti 10.3721 8.75059 0.837389
Ti 8.29765 2.18867 2.51217
Ti 10.3721 3.93879 3.34956
Ti 9.68059 6.56328 2.51217
Ti 11.755 8.3134 3.34956
Ti 9.68059 1.75148 2.80934e-16
Ti 11.755 3.5016 0.837389
Ti 11.0635 6.12609 5.61868e-16
Ti 13.1379 7.87621 0.837389
Ti 11.0635 1.3143 2.51217
Ti 13.1379 3.06441 3.34956
Ti 12.4465 5.68891 2.51217
Ti 14.5209 7.43902 3.34956
Ti 12.4465 0.877107 2.80934e-16
Ti 14.5209 2.62722 0.837389
Ti 13.8294 5.25172 5.61868e-16
Ti 13.8294 0.439919 2.51217
