44
Model 1
Ti 0.694631 7.36489 0.837389
Ti 0.694631 2.31608 3.34956
Ti 2.22045e-16 5.04882 2.51217
Ti 2.08389 6.94823 3.34956
Ti 1.38926 9.68097 2.51217
Ti 0 0 0
Ti 2.08389 1.89941 0.837389
Ti 1.38926 4.63215 2.9612e-16
Ti 3.47316 6.53157 0.837389
Ti 2.77853 9.26431 5.92239e-16
Ti 3.47316 1.48275 3.34956
Ti 2.77853 4.21549 2.51217
Ti 4.86242 6.1149 3.34956
Ti 4.16779 8.84764 2.51217
Ti 4.86242 1.06608 0.837389
Ti 4.16779 3.79883 2.9612e-16
Ti 6.25168 5.69824 0.837389
Ti 5.55705 8.43098 5.92239e-16
Ti 6.25168 0.649421 3.34956
Ti 5.55705 3.38216 2.51217
Ti 7.64095 5.28157 3.34956
Ti 6.94631 8.01431 2.51217
Ti 9.03021 9.91373 3.34956
Ti 7.64095 0.232757 0.837389
Ti 6.94631 2.9655 2.9612e-16
Ti 9.03021 4.86491 0.837389
Ti 8.33558 7.59765 5.92239e-16
Ti 10.4195 9.49706 0.837389
Ti 8.33558 2.54883 2.51217
Ti 10.4195 4.44825 3.34956
Ti 9.72484 7.18099 2.51217
Ti 11.8087 9.0804 3.34956
Ti 9.72484 2.13217 2.9612e-16
Ti 11.8087 4.03158 0.837389
Ti 11.1141 6.76432 5.92239e-16
Ti 13.198 8.66374 0.837389
Ti 11.1141 1.71551 2.51217
Ti 13.198 3.61492 3.34956
Ti 12.5034 6.34766 2.51217
Ti 14.5873 8.24707 3.34956
Ti 12.5034 1.29884 2.9612e-16
Ti 14.5873 3.19825 0.837389
Ti 13.8926 5.931 5.92239e-16
Ti 13.8926 0.882178 2.51217
44
Model 2
Ti 0.694631 7.36489 0.837389
Ti 0.694631 2.31608 3.34956
Ti 2.22045e-16 5.04882 2.51217
Ti 2.08389 6.94823 3.34956
Ti 1.38926 9.68097 2.51217
Ti 0 0 0
Ti 2.08389 1.89941 0.837389
Ti 1.38926 4.63215 2.9612e-16
Ti 3.47316 6.53157 0.837389
Ti 2.77853 9.26431 5.92239e-16
Ti 3.47316 1.48275 3.34956
Ti 2.77853 4.21549 2.51217
Ti 4.86242 6.1149 3.34956
Ti 4.16779 8.84764 2.51217
Ti 4.86242 1.06608 0.837389
Ti 4.16779 3.79883 2.9612e-16
Ti 6.25168 5.69824 0.837389
Ti 5.55705 8.43098 5.92239e-16
Ti 6.25168 0.649421 3.34956
Ti 5.55705 3.38216 2.51217
Ti 7.64095 5.28157 3.34956
Ti 6.94631 8.01431 2.51217
Ti 9.03021 9.91373 3.34956
Ti 7.64095 0.232757 0.837389
Ti 6.94631 2.9655 2.9612e-16
Ti 9.03021 4.86491 0.837389
Ti 8.33558 7.59765 5.92239e-16
Ti 10.4195 9.49706 0.837389
Ti 8.33558 2.54883 2.51217
Ti 10.4195 4.44825 3.34956
Ti 9.72484 7.18099 2.51217
Ti 11.8087 9.0804 3.34956
Ti 9.72484 2.13217 2.9612e-16
Ti 11.8087 4.03158 0.837389
Ti 11.1141 6.76432 5.92239e-16
Ti 13.198 8.66374 0.837389
Ti 11.1141 1.71551 2.51217
Ti 13.198 3.61492 3.34956
Ti 12.5034 6.34766 2.51217
Ti 14.5873 8.24707 3.34956
Ti 12.5034 1.29884 2.9612e-16
Ti 14.5873 3.19825 0.837389
Ti 13.8926 5.931 5.92239e-16
Ti 13.8926 0.882178 2.51217
