44
Model 1
Ti 0.674418 6.99275 0.814757
Ti 0.674418 2.19262 3.25903
Ti 0 4.80013 2.44427
Ti 2.02325 6.57787 3.25903
Ti 1.34884 9.18537 2.44427
Ti 0 0 0
Ti 2.02325 1.77774 0.814757
Ti 1.34884 4.38525 2.80934e-16
Ti 3.37209 6.16299 0.814757
Ti 2.69767 8.77049 5.61868e-16
Ti 3.37209 1.36286 3.25903
Ti 2.69767 3.97036 2.44427
Ti 4.72093 5.74811 3.25903
Ti 4.04651 8.35561 2.44427
Ti 4.72093 0.947978 0.814757
Ti 4.04651 3.55548 2.80934e-16
Ti 6.06976 5.33322 0.814757
Ti 5.39534 7.94073 5.61868e-16
Ti 6.06976 0.533096 3.25903
Ti 5.39534 3.1406 2.44427
Ti 7.4186 4.91834 3.25903
Ti 6.74418 7.52585 2.44427
Ti 8.76743 9.30359 3.25903
Ti 7.4186 0.118215 0.814757
Ti 6.74418 2.72572 2.80934e-16
Ti 8.76743 4.50346 0.814757
Ti 8.09302 7.11097 5.61868e-16
Ti 10.1163 8.88871 0.814757
Ti 8.09302 2.31084 2.44427
Ti 10.1163 4.08858 3.25903
Ti 9.44185 6.69608 2.44427
Ti 11.4651 8.47383 3.25903
Ti 9.44185 1.89596 2.80934e-16
Ti 11.4651 3.6737 0.814757
Ti 10.7907 6.2812 5.61868e-16
Ti 12.8139 8.05894 0.814757
Ti 10.7907 1.48107 2.44427
Ti 12.8139 3.25882 3.25903
Ti 12.1395 5.86632 2.44427
Ti 14.1628 7.64406 3.25903
Ti 12.1395 1.06619 2.80934e-16
Ti 14.1628 2.84393 0.814757
Ti 13.4884 5.45144 5.61868e-16
Ti 13.4884 0.651311 2.44427
44
Model 2
Ti 0.674418 6.99275 0.814757
Ti 0.674418 2.19262 3.25903
Ti 0 4.80013 2.44427
Ti 2.02325 6.57787 3.25903
Ti 1.34884 9.18537 2.44427
Ti 0 0 0
Ti 2.02325 1.77774 0.814757
Ti 1.34884 4.38525 2.80934e-16
Ti 3.37209 6.16299 0.814757
Ti 2.69767 8.77049 5.61868e-16
Ti 3.37209 1.36286 3.25903
Ti 2.69767 3.97036 2.44427
Ti 4.72093 5.74811 3.25903
Ti 4.04651 8.35561 2.44427
Ti 4.72093 0.947978 0.814757
Ti 4.04651 3.55548 2.80934e-16
Ti 6.06976 5.33322 0.814757
Ti 5.39534 7.94073 5.61868e-16
Ti 6.06976 0.533096 3.25903
Ti 5.39534 3.1406 2.44427
Ti 7.4186 4.91834 3.25903
Ti 6.74418 7.52585 2.44427
Ti 8.76743 9.30359 3.25903
Ti 7.4186 0.118215 0.814757
Ti 6.74418 2.72572 2.80934e-16
Ti 8.76743 4.50346 0.814757
Ti 8.09302 7.11097 5.61868e-16
Ti 10.1163 8.88871 0.814757
Ti 8.09302 2.31084 2.44427
Ti 10.1163 4.08858 3.25903
Ti 9.44185 6.69608 2.44427
Ti 11.4651 8.47383 3.25903
Ti 9.44185 1.89596 2.80934e-16
Ti 11.4651 3.6737 0.814757
Ti 10.7907 6.2812 5.61868e-16
Ti 12.8139 8.05894 0.814757
Ti 10.7907 1.48107 2.44427
Ti 12.8139 3.25882 3.25903
Ti 12.1395 5.86632 2.44427
Ti 14.1628 7.64406 3.25903
Ti 12.1395 1.06619 2.80934e-16
Ti 14.1628 2.84393 0.814757
Ti 13.4884 5.45144 5.61868e-16
Ti 13.4884 0.651311 2.44427
