44
Model 1
Ti 0.725199 7.01236 0.882653
Ti 0.725199 2.17636 3.53061
Ti 0 4.83601 2.64796
Ti 2.1756 6.52907 3.53061
Ti 1.4504 9.18872 2.64796
Ti 0 0 0
Ti 2.1756 1.69306 0.882653
Ti 1.4504 4.35271 2.80934e-16
Ti 3.62599 6.04577 0.882653
Ti 2.9008 8.70542 5.61868e-16
Ti 3.62599 1.20976 3.53061
Ti 2.9008 3.86941 2.64796
Ti 5.07639 5.56247 3.53061
Ti 4.35119 8.22212 2.64796
Ti 5.07639 0.726464 0.882653
Ti 4.35119 3.38612 -1.63155e-16
Ti 6.52679 5.07917 0.882653
Ti 5.80159 7.73883 1.17779e-16
Ti 6.52679 0.243166 3.53061
Ti 5.80159 2.90282 2.64796
Ti 7.97719 4.59588 3.53061
Ti 7.25199 7.25553 2.64796
Ti 9.42758 8.94859 3.53061
Ti 7.97719 -0.240131 0.882653
Ti 7.25199 2.41952 -6.07244e-16
Ti 9.42758 4.11258 0.882653
Ti 8.70239 6.77223 -3.2631e-16
Ti 10.878 8.46529 0.882653
Ti 8.70239 1.93622 2.64796
Ti 10.878 3.62928 3.53061
Ti 10.1528 6.28894 2.64796
Ti 12.3284 7.98199 3.53061
Ti 10.1528 1.45293 -1.49542e-15
Ti 12.3284 3.14599 0.882653
Ti 11.6032 5.80564 -1.21449e-15
Ti 13.7788 7.4987 0.882653
Ti 11.6032 0.96963 2.64796
Ti 13.7788 2.66269 3.53061
Ti 13.0536 5.32234 2.64796
Ti 15.2292 7.0154 3.53061
Ti 13.0536 0.486333 -1.49542e-15
Ti 15.2292 2.17939 0.882653
Ti 14.504 4.83904 -1.21449e-15
Ti 14.504 0.00303536 2.64796
44
Model 2
Ti 0.725199 7.01236 0.882653
Ti 0.725199 2.17636 3.53061
Ti 0 4.83601 2.64796
Ti 2.1756 6.52907 3.53061
Ti 1.4504 9.18872 2.64796
Ti 0 0 0
Ti 2.1756 1.69306 0.882653
Ti 1.4504 4.35271 2.80934e-16
Ti 3.62599 6.04577 0.882653
Ti 2.9008 8.70542 5.61868e-16
Ti 3.62599 1.20976 3.53061
Ti 2.9008 3.86941 2.64796
Ti 5.07639 5.56247 3.53061
Ti 4.35119 8.22212 2.64796
Ti 5.07639 0.726464 0.882653
Ti 4.35119 3.38612 -1.63155e-16
Ti 6.52679 5.07917 0.882653
Ti 5.80159 7.73883 1.17779e-16
Ti 6.52679 0.243166 3.53061
Ti 5.80159 2.90282 2.64796
Ti 7.97719 4.59588 3.53061
Ti 7.25199 7.25553 2.64796
Ti 9.42758 8.94859 3.53061
Ti 7.97719 -0.240131 0.882653
Ti 7.25199 2.41952 -6.07244e-16
Ti 9.42758 4.11258 0.882653
Ti 8.70239 6.77223 -3.2631e-16
Ti 10.878 8.46529 0.882653
Ti 8.70239 1.93622 2.64796
Ti 10.878 3.62928 3.53061
Ti 10.1528 6.28894 2.64796
Ti 12.3284 7.98199 3.53061
Ti 10.1528 1.45293 -1.49542e-15
Ti 12.3284 3.14599 0.882653
Ti 11.6032 5.80564 -1.21449e-15
Ti 13.7788 7.4987 0.882653
Ti 11.6032 0.96963 2.64796
Ti 13.7788 2.66269 3.53061
Ti 13.0536 5.32234 2.64796
Ti 15.2292 7.0154 3.53061
Ti 13.0536 0.486333 -1.49542e-15
Ti 15.2292 2.17939 0.882653
Ti 14.504 4.83904 -1.21449e-15
Ti 14.504 0.00303536 2.64796
