44
Model 1
Ti 0.708398 7.00564 0.860021
Ti 0.708398 2.18188 3.44008
Ti 0 4.82376 2.58006
Ti 2.12519 6.54565 3.44008
Ti 1.4168 9.18752 2.58006
Ti 0 0 0
Ti 2.12519 1.72189 0.860021
Ti 1.4168 4.36376 2.80934e-16
Ti 3.54199 6.08565 0.860021
Ti 2.83359 8.72753 5.61868e-16
Ti 3.54199 1.26189 3.44008
Ti 2.83359 3.90377 2.58006
Ti 4.95879 5.62565 3.44008
Ti 4.25039 8.26753 2.58006
Ti 4.95879 0.801895 0.860021
Ti 4.25039 3.44377 2.80934e-16
Ti 6.37558 5.16566 0.860021
Ti 5.66719 7.80754 5.61868e-16
Ti 6.37558 0.341899 3.44008
Ti 5.66719 2.98378 2.58006
Ti 7.79238 4.70566 3.44008
Ti 7.08398 7.34754 2.58006
Ti 9.20918 9.06943 3.44008
Ti 7.79238 -0.118096 0.860021
Ti 7.08398 2.52378 2.80934e-16
Ti 9.20918 4.24567 0.860021
Ti 8.50078 6.88754 5.61868e-16
Ti 10.626 8.60943 0.860021
Ti 8.50078 2.06379 2.58006
Ti 10.626 3.78567 3.44008
Ti 9.91758 6.42755 2.58006
Ti 12.0428 8.14943 3.44008
Ti 9.91758 1.60379 2.80934e-16
Ti 12.0428 3.32568 0.860021
Ti 11.3344 5.96755 5.61868e-16
Ti 13.4596 7.68944 0.860021
Ti 11.3344 1.14379 2.58006
Ti 13.4596 2.86568 3.44008
Ti 12.7512 5.50756 2.58006
Ti 14.8764 7.22944 3.44008
Ti 12.7512 0.683798 2.80934e-16
Ti 14.8764 2.40568 0.860021
Ti 14.168 5.04756 5.61868e-16
Ti 14.168 0.223803 2.58006
44
Model 2
Ti 0.708398 7.00564 0.860021
Ti 0.708398 2.18188 3.44008
Ti 0 4.82376 2.58006
Ti 2.12519 6.54565 3.44008
Ti 1.4168 9.18752 2.58006
Ti 0 0 0
Ti 2.12519 1.72189 0.860021
Ti 1.4168 4.36376 2.80934e-16
Ti 3.54199 6.08565 0.860021
Ti 2.83359 8.72753 5.61868e-16
Ti 3.54199 1.26189 3.44008
Ti 2.83359 3.90377 2.58006
Ti 4.95879 5.62565 3.44008
Ti 4.25039 8.26753 2.58006
Ti 4.95879 0.801895 0.860021
Ti 4.25039 3.44377 2.80934e-16
Ti 6.37558 5.16566 0.860021
Ti 5.66719 7.80754 5.61868e-16
Ti 6.37558 0.341899 3.44008
Ti 5.66719 2.98378 2.58006
Ti 7.79238 4.70566 3.44008
Ti 7.08398 7.34754 2.58006
Ti 9.20918 9.06943 3.44008
Ti 7.79238 -0.118096 0.860021
Ti 7.08398 2.52378 2.80934e-16
Ti 9.20918 4.24567 0.860021
Ti 8.50078 6.88754 5.61868e-16
Ti 10.626 8.60943 0.860021
Ti 8.50078 2.06379 2.58006
Ti 10.626 3.78567 3.44008
Ti 9.91758 6.42755 2.58006
Ti 12.0428 8.14943 3.44008
Ti 9.91758 1.60379 2.80934e-16
Ti 12.0428 3.32568 0.860021
Ti 11.3344 5.96755 5.61868e-16
Ti 13.4596 7.68944 0.860021
Ti 11.3344 1.14379 2.58006
Ti 13.4596 2.86568 3.44008
Ti 12.7512 5.50756 2.58006
Ti 14.8764 7.22944 3.44008
Ti 12.7512 0.683798 2.80934e-16
Ti 14.8764 2.40568 0.860021
Ti 14.168 5.04756 5.61868e-16
Ti 14.168 0.223803 2.58006
