44
Model 1
Ti 0.727088 7.1948 0.882653
Ti 0.727088 2.241 3.53061
Ti -6.66134e-16 4.9538 2.64796
Ti 2.18126 6.723 3.53061
Ti 1.45418 9.4358 2.64796
Ti 0 0 0
Ti 2.18126 1.76919 0.882653
Ti 1.45418 4.482 2.88527e-16
Ti 3.63544 6.25119 0.882653
Ti 2.90835 8.964 5.77054e-16
Ti 3.63544 1.29739 3.53061
Ti 2.90835 4.01019 2.64796
Ti 5.08962 5.77939 3.53061
Ti 4.36253 8.49219 2.64796
Ti 5.08962 0.825584 0.882653
Ti 4.36253 3.53839 -1.55562e-16
Ti 6.54379 5.30758 0.882653
Ti 5.81671 8.02039 1.32964e-16
Ti 6.54379 0.353779 3.53061
Ti 5.81671 3.06658 2.64796
Ti 7.99797 4.83578 3.53061
Ti 7.27088 7.54858 2.64796
Ti 9.45215 9.31778 3.53061
Ti 7.99797 -0.118026 0.882653
Ti 7.27088 2.59478 -5.99652e-16
Ti 9.45215 4.36397 0.882653
Ti 8.72506 7.07678 -3.11125e-16
Ti 10.9063 8.84597 0.882653
Ti 8.72506 2.12297 2.64796
Ti 10.9063 3.89217 3.53061
Ti 10.1792 6.60497 2.64796
Ti 12.3605 8.37417 3.53061
Ti 10.1792 1.65117 -1.48783e-15
Ti 12.3605 3.42036 0.882653
Ti 11.6334 6.13317 -1.1993e-15
Ti 13.8147 7.90236 0.882653
Ti 11.6334 1.17936 2.64796
Ti 13.8147 2.94856 3.53061
Ti 13.0876 5.66136 2.64796
Ti 15.2689 7.43056 3.53061
Ti 13.0876 0.707559 -1.48783e-15
Ti 15.2689 2.47675 0.882653
Ti 14.5418 5.18956 -1.1993e-15
Ti 14.5418 0.235754 2.64796
44
Model 2
Ti 0.727088 7.1948 0.882653
Ti 0.727088 2.241 3.53061
Ti -6.66134e-16 4.9538 2.64796
Ti 2.18126 6.723 3.53061
Ti 1.45418 9.4358 2.64796
Ti 0 0 0
Ti 2.18126 1.76919 0.882653
Ti 1.45418 4.482 2.88527e-16
Ti 3.63544 6.25119 0.882653
Ti 2.90835 8.964 5.77054e-16
Ti 3.63544 1.29739 3.53061
Ti 2.90835 4.01019 2.64796
Ti 5.08962 5.77939 3.53061
Ti 4.36253 8.49219 2.64796
Ti 5.08962 0.825584 0.882653
Ti 4.36253 3.53839 -1.55562e-16
Ti 6.54379 5.30758 0.882653
Ti 5.81671 8.02039 1.32964e-16
Ti 6.54379 0.353779 3.53061
Ti 5.81671 3.06658 2.64796
Ti 7.99797 4.83578 3.53061
Ti 7.27088 7.54858 2.64796
Ti 9.45215 9.31778 3.53061
Ti 7.99797 -0.118026 0.882653
Ti 7.27088 2.59478 -5.99652e-16
Ti 9.45215 4.36397 0.882653
Ti 8.72506 7.07678 -3.11125e-16
Ti 10.9063 8.84597 0.882653
Ti 8.72506 2.12297 2.64796
Ti 10.9063 3.89217 3.53061
Ti 10.1792 6.60497 2.64796
Ti 12.3605 8.37417 3.53061
Ti 10.1792 1.65117 -1.48783e-15
Ti 12.3605 3.42036 0.882653
Ti 11.6334 6.13317 -1.1993e-15
Ti 13.8147 7.90236 0.882653
Ti 11.6334 1.17936 2.64796
Ti 13.8147 2.94856 3.53061
Ti 13.0876 5.66136 2.64796
Ti 15.2689 7.43056 3.53061
Ti 13.0876 0.707559 -1.48783e-15
Ti 15.2689 2.47675 0.882653
Ti 14.5418 5.18956 -1.1993e-15
Ti 14.5418 0.235754 2.64796
