44
Model 1
Ti 0.67735 7.35889 0.814757
Ti 0.67735 2.32119 3.25903
Ti -8.88178e-16 5.0377 2.44427
Ti 2.03205 6.96357 3.25903
Ti 1.3547 9.68008 2.44427
Ti 0 0 0
Ti 2.03205 1.92587 0.814757
Ti 1.3547 4.64238 2.9612e-16
Ti 3.38675 6.56825 0.814757
Ti 2.7094 9.28476 5.92239e-16
Ti 3.38675 1.53056 3.25903
Ti 2.7094 4.24706 2.44427
Ti 4.74145 6.17294 3.25903
Ti 4.0641 8.88944 2.44427
Ti 4.74145 1.13524 0.814757
Ti 4.0641 3.85175 2.9612e-16
Ti 6.09615 5.77762 0.814757
Ti 5.4188 8.49413 5.92239e-16
Ti 6.09615 0.739923 3.25903
Ti 5.4188 3.45643 2.44427
Ti 7.45085 5.3823 3.25903
Ti 6.7735 8.09881 2.44427
Ti 8.80555 10.0247 3.25903
Ti 7.45085 0.344606 0.814757
Ti 6.7735 3.06111 2.9612e-16
Ti 8.80555 4.98699 0.814757
Ti 8.1282 7.70349 5.92239e-16
Ti 10.1602 9.62936 0.814757
Ti 8.1282 2.6658 2.44427
Ti 10.1602 4.59167 3.25903
Ti 9.48289 7.30818 2.44427
Ti 11.5149 9.23405 3.25903
Ti 9.48289 2.27048 2.9612e-16
Ti 11.5149 4.19635 0.814757
Ti 10.8376 6.91286 5.92239e-16
Ti 12.8696 8.83873 0.814757
Ti 10.8376 1.87516 2.44427
Ti 12.8696 3.80104 3.25903
Ti 12.1923 6.51754 2.44427
Ti 14.2243 8.44341 3.25903
Ti 12.1923 1.47985 2.9612e-16
Ti 14.2243 3.40572 0.814757
Ti 13.547 6.12222 5.92239e-16
Ti 13.547 1.08453 2.44427
44
Model 2
Ti 0.67735 7.35889 0.814757
Ti 0.67735 2.32119 3.25903
Ti -8.88178e-16 5.0377 2.44427
Ti 2.03205 6.96357 3.25903
Ti 1.3547 9.68008 2.44427
Ti 0 0 0
Ti 2.03205 1.92587 0.814757
Ti 1.3547 4.64238 2.9612e-16
Ti 3.38675 6.56825 0.814757
Ti 2.7094 9.28476 5.92239e-16
Ti 3.38675 1.53056 3.25903
Ti 2.7094 4.24706 2.44427
Ti 4.74145 6.17294 3.25903
Ti 4.0641 8.88944 2.44427
Ti 4.74145 1.13524 0.814757
Ti 4.0641 3.85175 2.9612e-16
Ti 6.09615 5.77762 0.814757
Ti 5.4188 8.49413 5.92239e-16
Ti 6.09615 0.739923 3.25903
Ti 5.4188 3.45643 2.44427
Ti 7.45085 5.3823 3.25903
Ti 6.7735 8.09881 2.44427
Ti 8.80555 10.0247 3.25903
Ti 7.45085 0.344606 0.814757
Ti 6.7735 3.06111 2.9612e-16
Ti 8.80555 4.98699 0.814757
Ti 8.1282 7.70349 5.92239e-16
Ti 10.1602 9.62936 0.814757
Ti 8.1282 2.6658 2.44427
Ti 10.1602 4.59167 3.25903
Ti 9.48289 7.30818 2.44427
Ti 11.5149 9.23405 3.25903
Ti 9.48289 2.27048 2.9612e-16
Ti 11.5149 4.19635 0.814757
Ti 10.8376 6.91286 5.92239e-16
Ti 12.8696 8.83873 0.814757
Ti 10.8376 1.87516 2.44427
Ti 12.8696 3.80104 3.25903
Ti 12.1923 6.51754 2.44427
Ti 14.2243 8.44341 3.25903
Ti 12.1923 1.47985 2.9612e-16
Ti 14.2243 3.40572 0.814757
Ti 13.547 6.12222 5.92239e-16
Ti 13.547 1.08453 2.44427
