44
Model 1
Ti 0.701799 7.12064 0.849686
Ti 0.701799 2.22604 3.39875
Ti 4.44089e-16 4.89459 2.54906
Ti 2.1054 6.67813 3.39875
Ti 1.4036 9.34668 2.54906
Ti 0 0 0
Ti 2.1054 1.78353 0.849686
Ti 1.4036 4.45209 2.85839e-16
Ti 3.50899 6.23562 0.849686
Ti 2.8072 8.90417 5.71677e-16
Ti 3.50899 1.34103 3.39875
Ti 2.8072 4.00958 2.54906
Ti 4.91259 5.79311 3.39875
Ti 4.21079 8.46166 2.54906
Ti 4.91259 0.898517 0.849686
Ti 4.21079 3.56707 2.85839e-16
Ti 6.31619 5.3506 0.849686
Ti 5.61439 8.01915 5.71677e-16
Ti 6.31619 0.456008 3.39875
Ti 5.61439 3.12456 2.54906
Ti 7.71979 4.90809 3.39875
Ti 7.01799 7.57665 2.54906
Ti 9.12339 9.36018 3.39875
Ti 7.71979 0.0134995 0.849686
Ti 7.01799 2.68205 2.85839e-16
Ti 9.12339 4.46559 0.849686
Ti 8.42159 7.13414 5.71677e-16
Ti 10.527 8.91767 0.849686
Ti 8.42159 2.23954 2.54906
Ti 10.527 4.02308 3.39875
Ti 9.82518 6.69163 2.54906
Ti 11.9306 8.47516 3.39875
Ti 9.82518 1.79703 2.85839e-16
Ti 11.9306 3.58057 0.849686
Ti 11.2288 6.24912 5.71677e-16
Ti 13.3342 8.03265 0.849686
Ti 11.2288 1.35453 2.54906
Ti 13.3342 3.13806 3.39875
Ti 12.6324 5.80661 2.54906
Ti 14.7378 7.59015 3.39875
Ti 12.6324 0.912016 2.85839e-16
Ti 14.7378 2.69555 0.849686
Ti 14.036 5.3641 5.71677e-16
Ti 14.036 0.469508 2.54906
44
Model 2
Ti 0.701799 7.12064 0.849686
Ti 0.701799 2.22604 3.39875
Ti 4.44089e-16 4.89459 2.54906
Ti 2.1054 6.67813 3.39875
Ti 1.4036 9.34668 2.54906
Ti 0 0 0
Ti 2.1054 1.78353 0.849686
Ti 1.4036 4.45209 2.85839e-16
Ti 3.50899 6.23562 0.849686
Ti 2.8072 8.90417 5.71677e-16
Ti 3.50899 1.34103 3.39875
Ti 2.8072 4.00958 2.54906
Ti 4.91259 5.79311 3.39875
Ti 4.21079 8.46166 2.54906
Ti 4.91259 0.898517 0.849686
Ti 4.21079 3.56707 2.85839e-16
Ti 6.31619 5.3506 0.849686
Ti 5.61439 8.01915 5.71677e-16
Ti 6.31619 0.456008 3.39875
Ti 5.61439 3.12456 2.54906
Ti 7.71979 4.90809 3.39875
Ti 7.01799 7.57665 2.54906
Ti 9.12339 9.36018 3.39875
Ti 7.71979 0.0134995 0.849686
Ti 7.01799 2.68205 2.85839e-16
Ti 9.12339 4.46559 0.849686
Ti 8.42159 7.13414 5.71677e-16
Ti 10.527 8.91767 0.849686
Ti 8.42159 2.23954 2.54906
Ti 10.527 4.02308 3.39875
Ti 9.82518 6.69163 2.54906
Ti 11.9306 8.47516 3.39875
Ti 9.82518 1.79703 2.85839e-16
Ti 11.9306 3.58057 0.849686
Ti 11.2288 6.24912 5.71677e-16
Ti 13.3342 8.03265 0.849686
Ti 11.2288 1.35453 2.54906
Ti 13.3342 3.13806 3.39875
Ti 12.6324 5.80661 2.54906
Ti 14.7378 7.59015 3.39875
Ti 12.6324 0.912016 2.85839e-16
Ti 14.7378 2.69555 0.849686
Ti 14.036 5.3641 5.71677e-16
Ti 14.036 0.469508 2.54906
