8
Model 1
Fe 0 0 0
Fe 1.70162 0 2.368
Fe 0 2.9473 0
Fe 1.70162 2.9473 2.368
Fe 2.55244 -1.47365 0
Fe 4.25406 -1.47365 2.368
Fe 2.55244 1.47365 0
Fe 4.25406 1.47365 2.368
8
Model 2
Fe 0 0 0
Fe 1.70162 0 2.368
Fe 0 2.9473 0
Fe 1.70162 2.9473 2.368
Fe 2.55244 -1.47365 0
Fe 4.25406 -1.47365 2.368
Fe 2.55244 1.47365 0
Fe 4.25406 1.47365 2.368
