88
Model 1
Ti 5.71908 6.66034 2.32838
Ti 5.71908 4.99525 0
Ti 7.32131 3.8852 2.32838
Ti 7.9622 7.21537 0
Ti 9.24398 6.10531 2.32838
Ti 7.00086 2.22011 0
Ti 8.28265 1.11006 2.32838
Ti 8.92354 4.44023 0
Ti 10.2053 3.33017 2.32838
Ti 10.8462 6.66034 0
Ti 12.128 5.55028 2.32838
Ti 9.88487 1.66508 0
Ti 11.1667 0.555028 2.32838
Ti 11.8075 3.8852 0
Ti 13.0893 2.77514 2.32838
Ti 13.7302 6.10531 0
Ti 15.012 4.99525 2.32838
Ti 17.2604 7.21537 2.32838
Ti 12.7689 1.11006 0
Ti 14.0507 1.16426e-11 2.32838
Ti 14.6916 3.33017 0
Ti 15.9733 2.22011 2.32838
Ti 17.2604 5.55028 0
Ti 15.6529 0.555028 0
Ti 4.11685 3.8852 2.32838
Ti 3.47596 7.21537 0
Ti 2.19418 6.10531 2.32838
Ti 4.4373 2.22011 0
Ti 3.15551 1.11006 2.32838
Ti 2.51462 4.44023 0
Ti 1.23284 3.33017 2.32838
Ti 0.591949 6.66034 0
Ti 22.3928 5.55028 2.32838
Ti 1.55329 1.66508 0
Ti 0.271503 0.555028 2.32838
Ti 22.7133 3.8852 0
Ti 21.4315 2.77514 2.32838
Ti 20.7906 6.10531 0
Ti 19.5088 4.99525 2.32838
Ti 21.7519 1.11006 0
Ti 20.4702 1.16426e-11 2.32838
Ti 19.8293 3.33017 0
Ti 18.5475 2.22011 2.32838
Ti 18.8679 0.555028 0
Ti 5.71908 14.4307 2.32838
Ti 5.71908 12.7657 0
Ti 7.32131 11.6556 2.32838
Ti 7.9622 14.9858 0
Ti 9.24398 13.8757 2.32838
Ti 7.00086 9.99051 0
Ti 8.28265 8.88045 2.32838
Ti 8.92354 12.2106 0
Ti 10.2053 11.1006 2.32838
Ti 10.8462 14.4307 0
Ti 12.128 13.3207 2.32838
Ti 9.88487 9.43548 0
Ti 11.1667 8.32542 2.32838
Ti 11.8075 11.6556 0
Ti 13.0893 10.5455 2.32838
Ti 13.7302 13.8757 0
Ti 15.012 12.7657 2.32838
Ti 17.2604 14.9858 2.32838
Ti 12.7689 8.88045 0
Ti 14.0507 7.7704 2.32838
Ti 14.6916 11.1006 0
Ti 15.9733 9.99051 2.32838
Ti 17.2604 13.3207 0
Ti 15.6529 8.32542 0
Ti 4.11685 11.6556 2.32838
Ti 3.47596 14.9858 0
Ti 2.19418 13.8757 2.32838
Ti 4.4373 9.99051 0
Ti 3.15551 8.88045 2.32838
Ti 2.51462 12.2106 0
Ti 1.23284 11.1006 2.32838
Ti 0.591949 14.4307 0
Ti 22.3928 13.3207 2.32838
Ti 1.55329 9.43548 0
Ti 0.271503 8.32542 2.32838
Ti 22.7133 11.6556 0
Ti 21.4315 10.5455 2.32838
Ti 20.7906 13.8757 0
Ti 19.5088 12.7657 2.32838
Ti 21.7519 8.88045 0
Ti 20.4702 7.7704 2.32838
Ti 19.8293 11.1006 0
Ti 18.5475 9.99051 2.32838
Ti 18.8679 8.32542 0
88
Model 2
Ti 5.71908 6.66034 2.32838
Ti 5.71908 4.99525 0
Ti 7.32131 3.8852 2.32838
Ti 7.9622 7.21537 0
Ti 9.24398 6.10531 2.32838
Ti 7.00086 2.22011 0
Ti 8.28265 1.11006 2.32838
Ti 8.92354 4.44023 0
Ti 10.2053 3.33017 2.32838
Ti 10.8462 6.66034 0
Ti 12.128 5.55028 2.32838
Ti 9.88487 1.66508 0
Ti 11.1667 0.555028 2.32838
Ti 11.8075 3.8852 0
Ti 13.0893 2.77514 2.32838
Ti 13.7302 6.10531 0
Ti 15.012 4.99525 2.32838
Ti 17.2604 7.21537 2.32838
Ti 12.7689 1.11006 0
Ti 14.0507 1.16426e-11 2.32838
Ti 14.6916 3.33017 0
Ti 15.9733 2.22011 2.32838
Ti 17.2604 5.55028 0
Ti 15.6529 0.555028 0
Ti 4.11685 3.8852 2.32838
Ti 3.47596 7.21537 0
Ti 2.19418 6.10531 2.32838
Ti 4.4373 2.22011 0
Ti 3.15551 1.11006 2.32838
Ti 2.51462 4.44023 0
Ti 1.23284 3.33017 2.32838
Ti 0.591949 6.66034 0
Ti 22.3928 5.55028 2.32838
Ti 1.55329 1.66508 0
Ti 0.271503 0.555028 2.32838
Ti 22.7133 3.8852 0
Ti 21.4315 2.77514 2.32838
Ti 20.7906 6.10531 0
Ti 19.5088 4.99525 2.32838
Ti 21.7519 1.11006 0
Ti 20.4702 1.16426e-11 2.32838
Ti 19.8293 3.33017 0
Ti 18.5475 2.22011 2.32838
Ti 18.8679 0.555028 0
Ti 5.71908 14.4307 2.32838
Ti 5.71908 12.7657 0
Ti 7.32131 11.6556 2.32838
Ti 7.9622 14.9858 0
Ti 9.24398 13.8757 2.32838
Ti 7.00086 9.99051 0
Ti 8.28265 8.88045 2.32838
Ti 8.92354 12.2106 0
Ti 10.2053 11.1006 2.32838
Ti 10.8462 14.4307 0
Ti 12.128 13.3207 2.32838
Ti 9.88487 9.43548 0
Ti 11.1667 8.32542 2.32838
Ti 11.8075 11.6556 0
Ti 13.0893 10.5455 2.32838
Ti 13.7302 13.8757 0
Ti 15.012 12.7657 2.32838
Ti 17.2604 14.9858 2.32838
Ti 12.7689 8.88045 0
Ti 14.0507 7.7704 2.32838
Ti 14.6916 11.1006 0
Ti 15.9733 9.99051 2.32838
Ti 17.2604 13.3207 0
Ti 15.6529 8.32542 0
Ti 4.11685 11.6556 2.32838
Ti 3.47596 14.9858 0
Ti 2.19418 13.8757 2.32838
Ti 4.4373 9.99051 0
Ti 3.15551 8.88045 2.32838
Ti 2.51462 12.2106 0
Ti 1.23284 11.1006 2.32838
Ti 0.591949 14.4307 0
Ti 22.3928 13.3207 2.32838
Ti 1.55329 9.43548 0
Ti 0.271503 8.32542 2.32838
Ti 22.7133 11.6556 0
Ti 21.4315 10.5455 2.32838
Ti 20.7906 13.8757 0
Ti 19.5088 12.7657 2.32838
Ti 21.7519 8.88045 0
Ti 20.4702 7.7704 2.32838
Ti 19.8293 11.1006 0
Ti 18.5475 9.99051 2.32838
Ti 18.8679 8.32542 0
