100
Model 1
Ti 6.92396 6.66034 2.32838
Ti 5.64217 1.66508 2.32838
Ti 5.64217 4.99525 0
Ti 7.88529 3.8852 2.32838
Ti 8.52618 7.21537 0
Ti 9.80797 6.10531 2.32838
Ti 5.64217 -4.12758e-11 0
Ti 7.56485 2.22011 0
Ti 8.84663 1.11006 2.32838
Ti 9.48752 4.44023 0
Ti 10.7693 3.33017 2.32838
Ti 11.4102 6.66034 0
Ti 12.692 5.55028 2.32838
Ti 10.4489 1.66508 0
Ti 11.7306 0.555028 2.32838
Ti 12.3715 3.8852 0
Ti 13.6533 2.77514 2.32838
Ti 14.2942 6.10531 0
Ti 15.576 4.99525 2.32838
Ti 18.4653 7.21537 2.32838
Ti 13.3329 1.11006 0
Ti 14.6147 1.16426e-11 2.32838
Ti 15.2555 3.33017 0
Ti 16.5373 2.22011 2.32838
Ti 17.1782 5.55028 0
Ti 18.4653 4.44023 2.32838
Ti 16.2169 0.555028 0
Ti 18.4653 2.77514 0
Ti 4.36039 6.66034 2.32838
Ti 3.39905 3.8852 2.32838
Ti 2.75816 7.21537 0
Ti 1.47638 6.10531 2.32838
Ti 3.7195 2.22011 0
Ti 2.43772 1.11006 2.32838
Ti 1.79682 4.44023 0
Ti 0.515042 3.33017 2.32838
Ti 25.5204 6.66034 0
Ti 24.2386 5.55028 2.32838
Ti 0.835487 1.66508 0
Ti 25.1999 0.555028 2.32838
Ti 24.5591 3.8852 0
Ti 23.2773 2.77514 2.32838
Ti 22.6364 6.10531 0
Ti 21.3546 4.99525 2.32838
Ti 23.5977 1.11006 0
Ti 22.3159 1.16426e-11 2.32838
Ti 21.675 3.33017 0
Ti 20.3933 2.22011 2.32838
Ti 19.7524 5.55028 0
Ti 20.7137 0.555028 0
Ti 6.92396 14.4307 2.32838
Ti 5.64217 9.43548 2.32838
Ti 5.64217 12.7657 0
Ti 7.88529 11.6556 2.32838
Ti 8.52618 14.9858 0
Ti 9.80797 13.8757 2.32838
Ti 5.64217 7.7704 0
Ti 7.56485 9.99051 0
Ti 8.84663 8.88045 2.32838
Ti 9.48752 12.2106 0
Ti 10.7693 11.1006 2.32838
Ti 11.4102 14.4307 0
Ti 12.692 13.3207 2.32838
Ti 10.4489 9.43548 0
Ti 11.7306 8.32542 2.32838
Ti 12.3715 11.6556 0
Ti 13.6533 10.5455 2.32838
Ti 14.2942 13.8757 0
Ti 15.576 12.7657 2.32838
Ti 18.4653 14.9858 2.32838
Ti 13.3329 8.88045 0
Ti 14.6147 7.7704 2.32838
Ti 15.2555 11.1006 0
Ti 16.5373 9.99051 2.32838
Ti 17.1782 13.3207 0
Ti 18.4653 12.2106 2.32838
Ti 16.2169 8.32542 0
Ti 18.4653 10.5455 0
Ti 4.36039 14.4307 2.32838
Ti 3.39905 11.6556 2.32838
Ti 2.75816 14.9858 0
Ti 1.47638 13.8757 2.32838
Ti 3.7195 9.99051 0
Ti 2.43772 8.88045 2.32838
Ti 1.79682 12.2106 0
Ti 0.515042 11.1006 2.32838
Ti 25.5204 14.4307 0
Ti 24.2386 13.3207 2.32838
Ti 0.835487 9.43548 0
Ti 25.1999 8.32542 2.32838
Ti 24.5591 11.6556 0
Ti 23.2773 10.5455 2.32838
Ti 22.6364 13.8757 0
Ti 21.3546 12.7657 2.32838
Ti 23.5977 8.88045 0
Ti 22.3159 7.7704 2.32838
Ti 21.675 11.1006 0
Ti 20.3933 9.99051 2.32838
Ti 19.7524 13.3207 0
Ti 20.7137 8.32542 0
100
Model 2
Ti 6.92396 6.66034 2.32838
Ti 5.64217 1.66508 2.32838
Ti 5.64217 4.99525 0
Ti 7.88529 3.8852 2.32838
Ti 8.52618 7.21537 0
Ti 9.80797 6.10531 2.32838
Ti 5.64217 -4.12758e-11 0
Ti 7.56485 2.22011 0
Ti 8.84663 1.11006 2.32838
Ti 9.48752 4.44023 0
Ti 10.7693 3.33017 2.32838
Ti 11.4102 6.66034 0
Ti 12.692 5.55028 2.32838
Ti 10.4489 1.66508 0
Ti 11.7306 0.555028 2.32838
Ti 12.3715 3.8852 0
Ti 13.6533 2.77514 2.32838
Ti 14.2942 6.10531 0
Ti 15.576 4.99525 2.32838
Ti 18.4653 7.21537 2.32838
Ti 13.3329 1.11006 0
Ti 14.6147 1.16426e-11 2.32838
Ti 15.2555 3.33017 0
Ti 16.5373 2.22011 2.32838
Ti 17.1782 5.55028 0
Ti 18.4653 4.44023 2.32838
Ti 16.2169 0.555028 0
Ti 18.4653 2.77514 0
Ti 4.36039 6.66034 2.32838
Ti 3.39905 3.8852 2.32838
Ti 2.75816 7.21537 0
Ti 1.47638 6.10531 2.32838
Ti 3.7195 2.22011 0
Ti 2.43772 1.11006 2.32838
Ti 1.79682 4.44023 0
Ti 0.515042 3.33017 2.32838
Ti 25.5204 6.66034 0
Ti 24.2386 5.55028 2.32838
Ti 0.835487 1.66508 0
Ti 25.1999 0.555028 2.32838
Ti 24.5591 3.8852 0
Ti 23.2773 2.77514 2.32838
Ti 22.6364 6.10531 0
Ti 21.3546 4.99525 2.32838
Ti 23.5977 1.11006 0
Ti 22.3159 1.16426e-11 2.32838
Ti 21.675 3.33017 0
Ti 20.3933 2.22011 2.32838
Ti 19.7524 5.55028 0
Ti 20.7137 0.555028 0
Ti 6.92396 14.4307 2.32838
Ti 5.64217 9.43548 2.32838
Ti 5.64217 12.7657 0
Ti 7.88529 11.6556 2.32838
Ti 8.52618 14.9858 0
Ti 9.80797 13.8757 2.32838
Ti 5.64217 7.7704 0
Ti 7.56485 9.99051 0
Ti 8.84663 8.88045 2.32838
Ti 9.48752 12.2106 0
Ti 10.7693 11.1006 2.32838
Ti 11.4102 14.4307 0
Ti 12.692 13.3207 2.32838
Ti 10.4489 9.43548 0
Ti 11.7306 8.32542 2.32838
Ti 12.3715 11.6556 0
Ti 13.6533 10.5455 2.32838
Ti 14.2942 13.8757 0
Ti 15.576 12.7657 2.32838
Ti 18.4653 14.9858 2.32838
Ti 13.3329 8.88045 0
Ti 14.6147 7.7704 2.32838
Ti 15.2555 11.1006 0
Ti 16.5373 9.99051 2.32838
Ti 17.1782 13.3207 0
Ti 18.4653 12.2106 2.32838
Ti 16.2169 8.32542 0
Ti 18.4653 10.5455 0
Ti 4.36039 14.4307 2.32838
Ti 3.39905 11.6556 2.32838
Ti 2.75816 14.9858 0
Ti 1.47638 13.8757 2.32838
Ti 3.7195 9.99051 0
Ti 2.43772 8.88045 2.32838
Ti 1.79682 12.2106 0
Ti 0.515042 11.1006 2.32838
Ti 25.5204 14.4307 0
Ti 24.2386 13.3207 2.32838
Ti 0.835487 9.43548 0
Ti 25.1999 8.32542 2.32838
Ti 24.5591 11.6556 0
Ti 23.2773 10.5455 2.32838
Ti 22.6364 13.8757 0
Ti 21.3546 12.7657 2.32838
Ti 23.5977 8.88045 0
Ti 22.3159 7.7704 2.32838
Ti 21.675 11.1006 0
Ti 20.3933 9.99051 2.32838
Ti 19.7524 13.3207 0
Ti 20.7137 8.32542 0
