28
Model 1
Ti 2.58683 3.39128 2.32838
Ti 5.52376 3.39128 2.32838
Ti 4.0553 2.54346 0
Ti 4.0553 0.84782 2.32838
Ti 6.99223 2.54346 0
Ti 6.99223 0.84782 2.32838
Ti 2.58683 -4.12758e-11 0
Ti 5.52376 1.16421e-11 0
Ti 11.4082 3.39128 2.32838
Ti 1.11836 2.54346 0
Ti 1.11836 0.84782 2.32838
Ti 9.93975 2.54346 0
Ti 9.93975 0.84782 2.32838
Ti 11.4082 1.16421e-11 0
Ti 2.58683 8.4782 2.32838
Ti 5.52376 8.4782 2.32838
Ti 4.0553 7.63038 0
Ti 4.0553 5.93474 2.32838
Ti 6.99223 7.63038 0
Ti 6.99223 5.93474 2.32838
Ti 2.58683 5.08692 0
Ti 5.52376 5.08692 0
Ti 11.4082 8.4782 2.32838
Ti 1.11836 7.63038 0
Ti 1.11836 5.93474 2.32838
Ti 9.93975 7.63038 0
Ti 9.93975 5.93474 2.32838
Ti 11.4082 5.08692 0
28
Model 2
Ti 2.58683 3.39128 2.32838
Ti 5.52376 3.39128 2.32838
Ti 4.0553 2.54346 0
Ti 4.0553 0.84782 2.32838
Ti 6.99223 2.54346 0
Ti 6.99223 0.84782 2.32838
Ti 2.58683 -4.12758e-11 0
Ti 5.52376 1.16421e-11 0
Ti 11.4082 3.39128 2.32838
Ti 1.11836 2.54346 0
Ti 1.11836 0.84782 2.32838
Ti 9.93975 2.54346 0
Ti 9.93975 0.84782 2.32838
Ti 11.4082 1.16421e-11 0
Ti 2.58683 8.4782 2.32838
Ti 5.52376 8.4782 2.32838
Ti 4.0553 7.63038 0
Ti 4.0553 5.93474 2.32838
Ti 6.99223 7.63038 0
Ti 6.99223 5.93474 2.32838
Ti 2.58683 5.08692 0
Ti 5.52376 5.08692 0
Ti 11.4082 8.4782 2.32838
Ti 1.11836 7.63038 0
Ti 1.11836 5.93474 2.32838
Ti 9.93975 7.63038 0
Ti 9.93975 5.93474 2.32838
Ti 11.4082 5.08692 0
