28
Model 1
Ti 2.58497 3.38883 2.317
Ti 5.51978 3.38883 2.317
Ti 4.05238 2.54163 0
Ti 4.05238 0.847209 2.317
Ti 6.98719 2.54163 0
Ti 6.98719 0.847209 2.317
Ti 2.58497 -4.12758e-11 0
Ti 5.51978 1.16421e-11 0
Ti 11.4 3.38883 2.317
Ti 1.11756 2.54163 0
Ti 1.11756 0.847209 2.317
Ti 9.93259 2.54163 0
Ti 9.93259 0.847209 2.317
Ti 11.4 1.16421e-11 0
Ti 2.58497 8.47209 2.317
Ti 5.51978 8.47209 2.317
Ti 4.05238 7.62488 0
Ti 4.05238 5.93046 2.317
Ti 6.98719 7.62488 0
Ti 6.98719 5.93046 2.317
Ti 2.58497 5.08325 0
Ti 5.51978 5.08325 0
Ti 11.4 8.47209 2.317
Ti 1.11756 7.62488 0
Ti 1.11756 5.93046 2.317
Ti 9.93259 7.62488 0
Ti 9.93259 5.93046 2.317
Ti 11.4 5.08325 0
28
Model 2
Ti 2.58497 3.38883 2.317
Ti 5.51978 3.38883 2.317
Ti 4.05238 2.54163 0
Ti 4.05238 0.847209 2.317
Ti 6.98719 2.54163 0
Ti 6.98719 0.847209 2.317
Ti 2.58497 -4.12758e-11 0
Ti 5.51978 1.16421e-11 0
Ti 11.4 3.38883 2.317
Ti 1.11756 2.54163 0
Ti 1.11756 0.847209 2.317
Ti 9.93259 2.54163 0
Ti 9.93259 0.847209 2.317
Ti 11.4 1.16421e-11 0
Ti 2.58497 8.47209 2.317
Ti 5.51978 8.47209 2.317
Ti 4.05238 7.62488 0
Ti 4.05238 5.93046 2.317
Ti 6.98719 7.62488 0
Ti 6.98719 5.93046 2.317
Ti 2.58497 5.08325 0
Ti 5.51978 5.08325 0
Ti 11.4 8.47209 2.317
Ti 1.11756 7.62488 0
Ti 1.11756 5.93046 2.317
Ti 9.93259 7.62488 0
Ti 9.93259 5.93046 2.317
Ti 11.4 5.08325 0
