80
Model 1
Ti 5.75044 7.05799 0.849464
Ti 5.75044 2.20401 3.39786
Ti 5.04939 4.85399 2.54839
Ti 7.15254 6.61202 3.39786
Ti 6.45149 9.262 2.54839
Ti 5.04939 -4.33925e-11 5.35523e-11
Ti 7.15254 1.75803 0.849464
Ti 6.45149 4.40801 -1.17544e-11
Ti 8.55463 6.16604 0.849464
Ti 7.85359 8.81602 -1.17573e-11
Ti 8.55463 1.31205 3.39786
Ti 7.85359 3.96203 2.54839
Ti 9.95673 5.72006 3.39786
Ti 9.25568 8.37004 2.54839
Ti 9.95673 0.866074 0.849464
Ti 9.25568 3.51606 -2.48156e-11
Ti 11.3588 5.27408 0.849464
Ti 10.6578 7.92407 -2.48175e-11
Ti 11.3588 0.420097 3.39786
Ti 10.6578 3.07008 2.54839
Ti 12.7609 4.82811 3.39786
Ti 12.0599 7.47809 2.54839
Ti 14.163 9.23612 3.39786
Ti 12.7609 9.682 0.849464
Ti 12.0599 2.6241 -3.78782e-11
Ti 14.163 4.38213 0.849464
Ti 13.462 7.03211 -3.78796e-11
Ti 15.5651 8.79014 0.849464
Ti 13.462 2.17812 2.54839
Ti 15.5651 3.93615 3.39786
Ti 14.8641 6.58614 2.54839
Ti 16.9672 8.34416 3.39786
Ti 14.8641 1.73215 -5.09394e-11
Ti 16.9672 3.49018 0.849464
Ti 16.2662 6.14016 -5.09398e-11
Ti 18.3693 7.89819 0.849464
Ti 16.2662 1.28617 2.54839
Ti 18.3693 3.0442 3.39786
Ti 17.6683 5.69418 2.54839
Ti 17.6683 0.840193 -6.40008e-11
Ti 19.0755 5.2482 -6.40007e-11
Ti 19.0755 0.394216 2.54839
Ti 4.34835 7.05799 4.24732
Ti 4.34835 2.20401 1.69893
Ti 2.94625 6.61202 1.69893
Ti 3.6473 9.262 2.54839
Ti 2.94625 1.75803 4.24732
Ti 3.6473 4.40801 5.35526e-11
Ti 1.54415 6.16604 4.24732
Ti 2.2452 8.81602 5.35507e-11
Ti 1.54415 1.31205 1.69893
Ti 2.2452 3.96203 2.54839
Ti 0.142059 5.72006 1.69893
Ti 0.843107 8.37004 2.54839
Ti 0.142059 0.866074 4.24732
Ti 0.843107 3.51606 4.04915e-11
Ti 26.7922 5.27408 4.24732
Ti 27.4932 7.92407 -2.48171e-11
Ti 26.7922 0.420097 1.69893
Ti 27.4932 3.07008 2.54839
Ti 25.3901 4.82811 1.69893
Ti 26.0911 7.47809 2.54839
Ti 23.988 9.23612 1.69893
Ti 25.3901 9.682 4.24732
Ti 26.0911 2.6241 -3.78783e-11
Ti 23.988 4.38213 4.24732
Ti 24.689 7.03211 -3.78792e-11
Ti 22.5859 8.79014 4.24732
Ti 24.689 2.17812 2.54839
Ti 22.5859 3.93615 1.69893
Ti 23.2869 6.58614 2.54839
Ti 21.1838 8.34416 1.69893
Ti 23.2869 1.73215 -5.09398e-11
Ti 21.1838 3.49018 4.24732
Ti 21.8848 6.14016 -5.09403e-11
Ti 19.7817 7.89819 4.24732
Ti 21.8848 1.28617 2.54839
Ti 19.7817 3.0442 1.69893
Ti 20.4827 5.69418 2.54839
Ti 20.4827 0.840193 -6.40008e-11
80
Model 2
Ti 5.75044 7.05799 0.849464
Ti 5.75044 2.20401 3.39786
Ti 5.04939 4.85399 2.54839
Ti 7.15254 6.61202 3.39786
Ti 6.45149 9.262 2.54839
Ti 5.04939 -4.33925e-11 5.35523e-11
Ti 7.15254 1.75803 0.849464
Ti 6.45149 4.40801 -1.17544e-11
Ti 8.55463 6.16604 0.849464
Ti 7.85359 8.81602 -1.17573e-11
Ti 8.55463 1.31205 3.39786
Ti 7.85359 3.96203 2.54839
Ti 9.95673 5.72006 3.39786
Ti 9.25568 8.37004 2.54839
Ti 9.95673 0.866074 0.849464
Ti 9.25568 3.51606 -2.48156e-11
Ti 11.3588 5.27408 0.849464
Ti 10.6578 7.92407 -2.48175e-11
Ti 11.3588 0.420097 3.39786
Ti 10.6578 3.07008 2.54839
Ti 12.7609 4.82811 3.39786
Ti 12.0599 7.47809 2.54839
Ti 14.163 9.23612 3.39786
Ti 12.7609 9.682 0.849464
Ti 12.0599 2.6241 -3.78782e-11
Ti 14.163 4.38213 0.849464
Ti 13.462 7.03211 -3.78796e-11
Ti 15.5651 8.79014 0.849464
Ti 13.462 2.17812 2.54839
Ti 15.5651 3.93615 3.39786
Ti 14.8641 6.58614 2.54839
Ti 16.9672 8.34416 3.39786
Ti 14.8641 1.73215 -5.09394e-11
Ti 16.9672 3.49018 0.849464
Ti 16.2662 6.14016 -5.09398e-11
Ti 18.3693 7.89819 0.849464
Ti 16.2662 1.28617 2.54839
Ti 18.3693 3.0442 3.39786
Ti 17.6683 5.69418 2.54839
Ti 17.6683 0.840193 -6.40008e-11
Ti 19.0755 5.2482 -6.40007e-11
Ti 19.0755 0.394216 2.54839
Ti 4.34835 7.05799 4.24732
Ti 4.34835 2.20401 1.69893
Ti 2.94625 6.61202 1.69893
Ti 3.6473 9.262 2.54839
Ti 2.94625 1.75803 4.24732
Ti 3.6473 4.40801 5.35526e-11
Ti 1.54415 6.16604 4.24732
Ti 2.2452 8.81602 5.35507e-11
Ti 1.54415 1.31205 1.69893
Ti 2.2452 3.96203 2.54839
Ti 0.142059 5.72006 1.69893
Ti 0.843107 8.37004 2.54839
Ti 0.142059 0.866074 4.24732
Ti 0.843107 3.51606 4.04915e-11
Ti 26.7922 5.27408 4.24732
Ti 27.4932 7.92407 -2.48171e-11
Ti 26.7922 0.420097 1.69893
Ti 27.4932 3.07008 2.54839
Ti 25.3901 4.82811 1.69893
Ti 26.0911 7.47809 2.54839
Ti 23.988 9.23612 1.69893
Ti 25.3901 9.682 4.24732
Ti 26.0911 2.6241 -3.78783e-11
Ti 23.988 4.38213 4.24732
Ti 24.689 7.03211 -3.78792e-11
Ti 22.5859 8.79014 4.24732
Ti 24.689 2.17812 2.54839
Ti 22.5859 3.93615 1.69893
Ti 23.2869 6.58614 2.54839
Ti 21.1838 8.34416 1.69893
Ti 23.2869 1.73215 -5.09398e-11
Ti 21.1838 3.49018 4.24732
Ti 21.8848 6.14016 -5.09403e-11
Ti 19.7817 7.89819 4.24732
Ti 21.8848 1.28617 2.54839
Ti 19.7817 3.0442 1.69893
Ti 20.4827 5.69418 2.54839
Ti 20.4827 0.840193 -6.40008e-11
