8
Model 1
Ti 0 0 0
Ti 1.6725 0 2.232
Ti 0 2.89685 0
Ti 1.6725 2.89685 2.232
Ti 2.50875 -1.44843 0
Ti 4.18125 -1.44843 2.232
Ti 2.50875 1.44843 0
Ti 4.18125 1.44843 2.232
8
Model 2
Ti 0 0 0
Ti 1.6725 0 2.232
Ti 0 2.89685 0
Ti 1.6725 2.89685 2.232
Ti 2.50875 -1.44843 0
Ti 4.18125 -1.44843 2.232
Ti 2.50875 1.44843 0
Ti 4.18125 1.44843 2.232
