8
Model 1
Ti 0 0 0
Ti 1.6273 0 2.418
Ti 0 2.81856 0
Ti 1.6273 2.81856 2.418
Ti 2.44094 -1.40928 0
Ti 4.06824 -1.40928 2.418
Ti 2.44094 1.40928 0
Ti 4.06824 1.40928 2.418
8
Model 2
Ti 0 0 0
Ti 1.6273 0 2.418
Ti 0 2.81856 0
Ti 1.6273 2.81856 2.418
Ti 2.44094 -1.40928 0
Ti 4.06824 -1.40928 2.418
Ti 2.44094 1.40928 0
Ti 4.06824 1.40928 2.418
