8
Model 1
Ti 0 0 0
Ti 1.7629 0 2.294
Ti 0 3.05344 0
Ti 1.7629 3.05344 2.294
Ti 2.64436 -1.52672 0
Ti 4.40726 -1.52672 2.294
Ti 2.64436 1.52672 0
Ti 4.40726 1.52672 2.294
8
Model 2
Ti 0 0 0
Ti 1.7629 0 2.294
Ti 0 3.05344 0
Ti 1.7629 3.05344 2.294
Ti 2.64436 -1.52672 0
Ti 4.40726 -1.52672 2.294
Ti 2.64436 1.52672 0
Ti 4.40726 1.52672 2.294
