256
Model 1
Ti 5.6178 6.66176 3.39528
Ti 4.6673 9.32493 2.54646
Ti 5.6178 1.778 0.84882
Ti 4.6673 4.44117 4.27758e-17
Ti 7.0198 6.21917 0.84882
Ti 6.3188 8.88234 6.1312e-16
Ti 7.0198 1.33541 3.39528
Ti 6.3188 3.99858 2.54646
Ti 8.4218 5.77658 3.39528
Ti 7.7208 8.43976 2.54646
Ti 8.4218 0.892824 0.84882
Ti 7.7208 3.556 3.27948e-16
Ti 9.8238 5.334 0.84882
Ti 9.1228 7.99717 6.1312e-16
Ti 9.8238 0.450237 3.39528
Ti 9.1228 3.11341 2.54646
Ti 11.2258 4.89141 3.39528
Ti 10.5248 7.55458 2.54646
Ti 12.6278 9.33258 3.39528
Ti 11.2258 0.00765032 0.84882
Ti 10.5248 2.67082 3.27948e-16
Ti 12.6278 4.44882 0.84882
Ti 11.9268 7.11199 6.1312e-16
Ti 14.0298 8.88999 0.84882
Ti 11.9268 2.22824 2.54646
Ti 14.0298 4.00623 3.39528
Ti 13.3288 6.66941 2.54646
Ti 15.4318 8.44741 3.39528
Ti 13.3288 1.78565 3.27948e-16
Ti 15.4318 3.56365 0.84882
Ti 14.7308 6.22682 6.1312e-16
Ti 14.7308 1.34306 2.54646
Ti 16.3833 5.78423 2.54646
Ti 16.3833 0.900475 3.27948e-16
Ti 3.7168 6.66176 3.39528
Ti 3.7168 1.778 0.84882
Ti 2.3148 6.21917 0.84882
Ti 3.0158 8.88234 3.27948e-16
Ti 2.3148 1.33541 3.39528
Ti 3.0158 3.99858 2.54646
Ti 0.9128 5.77658 3.39528
Ti 1.6138 8.43976 2.54646
Ti 0.9128 0.892824 0.84882
Ti 1.6138 3.556 4.27758e-17
Ti 22.9428 5.334 0.84882
Ti 0.2118 7.99717 3.27948e-16
Ti 22.9428 0.450237 3.39528
Ti 0.2118 3.11341 2.54646
Ti 21.5408 4.89141 3.39528
Ti 22.2418 7.55458 2.54646
Ti 20.1388 9.33258 3.39528
Ti 21.5408 0.00765032 0.84882
Ti 22.2418 2.67082 3.27948e-16
Ti 20.1388 4.44882 0.84882
Ti 20.8398 7.11199 6.1312e-16
Ti 18.7368 8.88999 0.84882
Ti 20.8398 2.22824 2.54646
Ti 18.7368 4.00623 3.39528
Ti 19.4378 6.66941 2.54646
Ti 17.3348 8.44741 3.39528
Ti 19.4378 1.78565 3.27948e-16
Ti 17.3348 3.56365 0.84882
Ti 18.0358 6.22682 6.1312e-16
Ti 18.0358 1.34306 2.54646
Ti 5.6178 16.4293 3.39528
Ti 4.6673 19.0924 2.54646
Ti 5.6178 11.5455 0.84882
Ti 4.6673 14.2087 6.1312e-16
Ti 7.0198 15.9867 0.84882
Ti 6.3188 18.6499 1.18346e-15
Ti 7.0198 11.1029 3.39528
Ti 6.3188 13.7661 2.54646
Ti 8.4218 15.5441 3.39528
Ti 7.7208 18.2073 2.54646
Ti 8.4218 10.6603 0.84882
Ti 7.7208 13.3235 8.98291e-16
Ti 9.8238 15.1015 0.84882
Ti 9.1228 17.7647 1.18346e-15
Ti 9.8238 10.2178 3.39528
Ti 9.1228 12.8809 2.54646
Ti 11.2258 14.6589 3.39528
Ti 10.5248 17.3221 2.54646
Ti 12.6278 19.1001 3.39528
Ti 11.2258 9.77517 0.84882
Ti 10.5248 12.4383 8.98291e-16
Ti 12.6278 14.2163 0.84882
Ti 11.9268 16.8795 1.18346e-15
Ti 14.0298 18.6575 0.84882
Ti 11.9268 11.9958 2.54646
Ti 14.0298 13.7738 3.39528
Ti 13.3288 16.4369 2.54646
Ti 15.4318 18.2149 3.39528
Ti 13.3288 11.5532 8.98291e-16
Ti 15.4318 13.3312 0.84882
Ti 14.7308 15.9943 1.18346e-15
Ti 14.7308 11.1106 2.54646
Ti 16.3833 15.5517 2.54646
Ti 16.3833 10.668 8.98291e-16
Ti 3.7168 16.4293 3.39528
Ti 3.7168 11.5455 0.84882
Ti 2.3148 15.9867 0.84882
Ti 3.0158 18.6499 8.98291e-16
Ti 2.3148 11.1029 3.39528
Ti 3.0158 13.7661 2.54646
Ti 0.9128 15.5441 3.39528
Ti 1.6138 18.2073 2.54646
Ti 0.9128 10.6603 0.84882
Ti 1.6138 13.3235 6.1312e-16
Ti 22.9428 15.1015 0.84882
Ti 0.2118 17.7647 8.98291e-16
Ti 22.9428 10.2178 3.39528
Ti 0.2118 12.8809 2.54646
Ti 21.5408 14.6589 3.39528
Ti 22.2418 17.3221 2.54646
Ti 20.1388 19.1001 3.39528
Ti 21.5408 9.77517 0.84882
Ti 22.2418 12.4383 8.98291e-16
Ti 20.1388 14.2163 0.84882
Ti 20.8398 16.8795 1.18346e-15
Ti 18.7368 18.6575 0.84882
Ti 20.8398 11.9958 2.54646
Ti 18.7368 13.7738 3.39528
Ti 19.4378 16.4369 2.54646
Ti 17.3348 18.2149 3.39528
Ti 19.4378 11.5532 8.98291e-16
Ti 17.3348 13.3312 0.84882
Ti 18.0358 15.9943 1.18346e-15
Ti 18.0358 11.1106 2.54646
Ti 5.6178 26.1968 3.39528
Ti 4.6673 28.86 2.54646
Ti 5.6178 21.313 0.84882
Ti 4.6673 23.9762 1.18346e-15
Ti 7.0198 25.7542 0.84882
Ti 6.3188 28.4174 1.75381e-15
Ti 7.0198 20.8704 3.39528
Ti 6.3188 23.5336 2.54646
Ti 8.4218 25.3116 3.39528
Ti 7.7208 27.9748 2.54646
Ti 8.4218 20.4279 0.84882
Ti 7.7208 23.091 1.46864e-15
Ti 9.8238 24.869 0.84882
Ti 9.1228 27.5322 1.75381e-15
Ti 9.8238 19.9853 3.39528
Ti 9.1228 22.6484 2.54646
Ti 11.2258 24.4264 3.39528
Ti 10.5248 27.0896 2.54646
Ti 12.6278 28.8676 3.39528
Ti 11.2258 19.5427 0.84882
Ti 10.5248 22.2059 1.46864e-15
Ti 12.6278 23.9839 0.84882
Ti 11.9268 26.647 1.75381e-15
Ti 14.0298 28.425 0.84882
Ti 11.9268 21.7633 2.54646
Ti 14.0298 23.5413 3.39528
Ti 13.3288 26.2044 2.54646
Ti 15.4318 27.9824 3.39528
Ti 13.3288 21.3207 1.46864e-15
Ti 15.4318 23.0987 0.84882
Ti 14.7308 25.7619 1.75381e-15
Ti 14.7308 20.8781 2.54646
Ti 16.3833 25.3193 2.54646
Ti 16.3833 20.4355 1.46864e-15
Ti 3.7168 26.1968 3.39528
Ti 3.7168 21.313 0.84882
Ti 2.3148 25.7542 0.84882
Ti 3.0158 28.4174 1.46864e-15
Ti 2.3148 20.8704 3.39528
Ti 3.0158 23.5336 2.54646
Ti 0.9128 25.3116 3.39528
Ti 1.6138 27.9748 2.54646
Ti 0.9128 20.4279 0.84882
Ti 1.6138 23.091 1.18346e-15
Ti 22.9428 24.869 0.84882
Ti 0.2118 27.5322 1.46864e-15
Ti 22.9428 19.9853 3.39528
Ti 0.2118 22.6484 2.54646
Ti 21.5408 24.4264 3.39528
Ti 22.2418 27.0896 2.54646
Ti 20.1388 28.8676 3.39528
Ti 21.5408 19.5427 0.84882
Ti 22.2418 22.2059 1.46864e-15
Ti 20.1388 23.9839 0.84882
Ti 20.8398 26.647 1.75381e-15
Ti 18.7368 28.425 0.84882
Ti 20.8398 21.7633 2.54646
Ti 18.7368 23.5413 3.39528
Ti 19.4378 26.2044 2.54646
Ti 17.3348 27.9824 3.39528
Ti 19.4378 21.3207 1.46864e-15
Ti 17.3348 23.0987 0.84882
Ti 18.0358 25.7619 1.75381e-15
Ti 18.0358 20.8781 2.54646
Ti 5.6178 35.9643 3.39528
Ti 4.6673 38.6275 2.54646
Ti 5.6178 31.0805 0.84882
Ti 4.6673 33.7437 1.75381e-15
Ti 7.0198 35.5217 0.84882
Ti 6.3188 38.1849 2.32415e-15
Ti 7.0198 30.638 3.39528
Ti 6.3188 33.3011 2.54646
Ti 8.4218 35.0791 3.39528
Ti 7.7208 37.7423 2.54646
Ti 8.4218 30.1954 0.84882
Ti 7.7208 32.8585 2.03898e-15
Ti 9.8238 34.6365 0.84882
Ti 9.1228 37.2997 2.32415e-15
Ti 9.8238 29.7528 3.39528
Ti 9.1228 32.416 2.54646
Ti 11.2258 34.194 3.39528
Ti 10.5248 36.8571 2.54646
Ti 12.6278 38.6351 3.39528
Ti 11.2258 29.3102 0.84882
Ti 10.5248 31.9734 2.03898e-15
Ti 12.6278 33.7514 0.84882
Ti 11.9268 36.4145 2.32415e-15
Ti 14.0298 38.1925 0.84882
Ti 11.9268 31.5308 2.54646
Ti 14.0298 33.3088 3.39528
Ti 13.3288 35.972 2.54646
Ti 15.4318 37.75 3.39528
Ti 13.3288 31.0882 2.03898e-15
Ti 15.4318 32.8662 0.84882
Ti 14.7308 35.5294 2.32415e-15
Ti 14.7308 30.6456 2.54646
Ti 16.3833 35.0868 2.54646
Ti 16.3833 30.203 2.03898e-15
Ti 3.7168 35.9643 3.39528
Ti 3.7168 31.0805 0.84882
Ti 2.3148 35.5217 0.84882
Ti 3.0158 38.1849 2.03898e-15
Ti 2.3148 30.638 3.39528
Ti 3.0158 33.3011 2.54646
Ti 0.9128 35.0791 3.39528
Ti 1.6138 37.7423 2.54646
Ti 0.9128 30.1954 0.84882
Ti 1.6138 32.8585 1.75381e-15
Ti 22.9428 34.6365 0.84882
Ti 0.2118 37.2997 2.03898e-15
Ti 22.9428 29.7528 3.39528
Ti 0.2118 32.416 2.54646
Ti 21.5408 34.194 3.39528
Ti 22.2418 36.8571 2.54646
Ti 20.1388 38.6351 3.39528
Ti 21.5408 29.3102 0.84882
Ti 22.2418 31.9734 2.03898e-15
Ti 20.1388 33.7514 0.84882
Ti 20.8398 36.4145 2.32415e-15
Ti 18.7368 38.1925 0.84882
Ti 20.8398 31.5308 2.54646
Ti 18.7368 33.3088 3.39528
Ti 19.4378 35.972 2.54646
Ti 17.3348 37.75 3.39528
Ti 19.4378 31.0882 2.03898e-15
Ti 17.3348 32.8662 0.84882
Ti 18.0358 35.5294 2.32415e-15
Ti 18.0358 30.6456 2.54646
