256
Model 1
Ti 5.5578 6.66176 3.39528
Ti 4.7073 9.32493 2.54646
Ti 5.5578 1.778 0.84882
Ti 4.7073 4.44117 4.27758e-17
Ti 6.9598 6.21917 0.84882
Ti 6.2588 8.88234 6.1312e-16
Ti 6.9598 1.33541 3.39528
Ti 6.2588 3.99858 2.54646
Ti 8.3618 5.77658 3.39528
Ti 7.6608 8.43976 2.54646
Ti 8.3618 0.892824 0.84882
Ti 7.6608 3.556 3.27948e-16
Ti 9.7638 5.334 0.84882
Ti 9.0628 7.99717 6.1312e-16
Ti 9.7638 0.450237 3.39528
Ti 9.0628 3.11341 2.54646
Ti 11.1658 4.89141 3.39528
Ti 10.4648 7.55458 2.54646
Ti 12.5678 9.33258 3.39528
Ti 11.1658 0.00765032 0.84882
Ti 10.4648 2.67082 3.27948e-16
Ti 12.5678 4.44882 0.84882
Ti 11.8668 7.11199 6.1312e-16
Ti 13.9698 8.88999 0.84882
Ti 11.8668 2.22824 2.54646
Ti 13.9698 4.00623 3.39528
Ti 13.2688 6.66941 2.54646
Ti 15.3718 8.44741 3.39528
Ti 13.2688 1.78565 3.27948e-16
Ti 15.3718 3.56365 0.84882
Ti 14.6708 6.22682 6.1312e-16
Ti 14.6708 1.34306 2.54646
Ti 16.2233 5.78423 2.54646
Ti 16.2233 0.900475 3.27948e-16
Ti 3.8568 6.66176 3.39528
Ti 3.8568 1.778 0.84882
Ti 2.4548 6.21917 0.84882
Ti 3.1558 8.88234 3.27948e-16
Ti 2.4548 1.33541 3.39528
Ti 3.1558 3.99858 2.54646
Ti 1.0528 5.77658 3.39528
Ti 1.7538 8.43976 2.54646
Ti 1.0528 0.892824 0.84882
Ti 1.7538 3.556 4.27758e-17
Ti 22.6828 5.334 0.84882
Ti 0.3518 7.99717 3.27948e-16
Ti 22.6828 0.450237 3.39528
Ti 0.3518 3.11341 2.54646
Ti 21.2808 4.89141 3.39528
Ti 21.9818 7.55458 2.54646
Ti 19.8788 9.33258 3.39528
Ti 21.2808 0.00765032 0.84882
Ti 21.9818 2.67082 3.27948e-16
Ti 19.8788 4.44882 0.84882
Ti 20.5798 7.11199 6.1312e-16
Ti 18.4768 8.88999 0.84882
Ti 20.5798 2.22824 2.54646
Ti 18.4768 4.00623 3.39528
Ti 19.1778 6.66941 2.54646
Ti 17.0748 8.44741 3.39528
Ti 19.1778 1.78565 3.27948e-16
Ti 17.0748 3.56365 0.84882
Ti 17.7758 6.22682 6.1312e-16
Ti 17.7758 1.34306 2.54646
Ti 5.5578 16.4293 3.39528
Ti 4.7073 19.0924 2.54646
Ti 5.5578 11.5455 0.84882
Ti 4.7073 14.2087 6.1312e-16
Ti 6.9598 15.9867 0.84882
Ti 6.2588 18.6499 1.18346e-15
Ti 6.9598 11.1029 3.39528
Ti 6.2588 13.7661 2.54646
Ti 8.3618 15.5441 3.39528
Ti 7.6608 18.2073 2.54646
Ti 8.3618 10.6603 0.84882
Ti 7.6608 13.3235 8.98291e-16
Ti 9.7638 15.1015 0.84882
Ti 9.0628 17.7647 1.18346e-15
Ti 9.7638 10.2178 3.39528
Ti 9.0628 12.8809 2.54646
Ti 11.1658 14.6589 3.39528
Ti 10.4648 17.3221 2.54646
Ti 12.5678 19.1001 3.39528
Ti 11.1658 9.77517 0.84882
Ti 10.4648 12.4383 8.98291e-16
Ti 12.5678 14.2163 0.84882
Ti 11.8668 16.8795 1.18346e-15
Ti 13.9698 18.6575 0.84882
Ti 11.8668 11.9958 2.54646
Ti 13.9698 13.7738 3.39528
Ti 13.2688 16.4369 2.54646
Ti 15.3718 18.2149 3.39528
Ti 13.2688 11.5532 8.98291e-16
Ti 15.3718 13.3312 0.84882
Ti 14.6708 15.9943 1.18346e-15
Ti 14.6708 11.1106 2.54646
Ti 16.2233 15.5517 2.54646
Ti 16.2233 10.668 8.98291e-16
Ti 3.8568 16.4293 3.39528
Ti 3.8568 11.5455 0.84882
Ti 2.4548 15.9867 0.84882
Ti 3.1558 18.6499 8.98291e-16
Ti 2.4548 11.1029 3.39528
Ti 3.1558 13.7661 2.54646
Ti 1.0528 15.5441 3.39528
Ti 1.7538 18.2073 2.54646
Ti 1.0528 10.6603 0.84882
Ti 1.7538 13.3235 6.1312e-16
Ti 22.6828 15.1015 0.84882
Ti 0.3518 17.7647 8.98291e-16
Ti 22.6828 10.2178 3.39528
Ti 0.3518 12.8809 2.54646
Ti 21.2808 14.6589 3.39528
Ti 21.9818 17.3221 2.54646
Ti 19.8788 19.1001 3.39528
Ti 21.2808 9.77517 0.84882
Ti 21.9818 12.4383 8.98291e-16
Ti 19.8788 14.2163 0.84882
Ti 20.5798 16.8795 1.18346e-15
Ti 18.4768 18.6575 0.84882
Ti 20.5798 11.9958 2.54646
Ti 18.4768 13.7738 3.39528
Ti 19.1778 16.4369 2.54646
Ti 17.0748 18.2149 3.39528
Ti 19.1778 11.5532 8.98291e-16
Ti 17.0748 13.3312 0.84882
Ti 17.7758 15.9943 1.18346e-15
Ti 17.7758 11.1106 2.54646
Ti 5.5578 26.1968 3.39528
Ti 4.7073 28.86 2.54646
Ti 5.5578 21.313 0.84882
Ti 4.7073 23.9762 1.18346e-15
Ti 6.9598 25.7542 0.84882
Ti 6.2588 28.4174 1.75381e-15
Ti 6.9598 20.8704 3.39528
Ti 6.2588 23.5336 2.54646
Ti 8.3618 25.3116 3.39528
Ti 7.6608 27.9748 2.54646
Ti 8.3618 20.4279 0.84882
Ti 7.6608 23.091 1.46864e-15
Ti 9.7638 24.869 0.84882
Ti 9.0628 27.5322 1.75381e-15
Ti 9.7638 19.9853 3.39528
Ti 9.0628 22.6484 2.54646
Ti 11.1658 24.4264 3.39528
Ti 10.4648 27.0896 2.54646
Ti 12.5678 28.8676 3.39528
Ti 11.1658 19.5427 0.84882
Ti 10.4648 22.2059 1.46864e-15
Ti 12.5678 23.9839 0.84882
Ti 11.8668 26.647 1.75381e-15
Ti 13.9698 28.425 0.84882
Ti 11.8668 21.7633 2.54646
Ti 13.9698 23.5413 3.39528
Ti 13.2688 26.2044 2.54646
Ti 15.3718 27.9824 3.39528
Ti 13.2688 21.3207 1.46864e-15
Ti 15.3718 23.0987 0.84882
Ti 14.6708 25.7619 1.75381e-15
Ti 14.6708 20.8781 2.54646
Ti 16.2233 25.3193 2.54646
Ti 16.2233 20.4355 1.46864e-15
Ti 3.8568 26.1968 3.39528
Ti 3.8568 21.313 0.84882
Ti 2.4548 25.7542 0.84882
Ti 3.1558 28.4174 1.46864e-15
Ti 2.4548 20.8704 3.39528
Ti 3.1558 23.5336 2.54646
Ti 1.0528 25.3116 3.39528
Ti 1.7538 27.9748 2.54646
Ti 1.0528 20.4279 0.84882
Ti 1.7538 23.091 1.18346e-15
Ti 22.6828 24.869 0.84882
Ti 0.3518 27.5322 1.46864e-15
Ti 22.6828 19.9853 3.39528
Ti 0.3518 22.6484 2.54646
Ti 21.2808 24.4264 3.39528
Ti 21.9818 27.0896 2.54646
Ti 19.8788 28.8676 3.39528
Ti 21.2808 19.5427 0.84882
Ti 21.9818 22.2059 1.46864e-15
Ti 19.8788 23.9839 0.84882
Ti 20.5798 26.647 1.75381e-15
Ti 18.4768 28.425 0.84882
Ti 20.5798 21.7633 2.54646
Ti 18.4768 23.5413 3.39528
Ti 19.1778 26.2044 2.54646
Ti 17.0748 27.9824 3.39528
Ti 19.1778 21.3207 1.46864e-15
Ti 17.0748 23.0987 0.84882
Ti 17.7758 25.7619 1.75381e-15
Ti 17.7758 20.8781 2.54646
Ti 5.5578 35.9643 3.39528
Ti 4.7073 38.6275 2.54646
Ti 5.5578 31.0805 0.84882
Ti 4.7073 33.7437 1.75381e-15
Ti 6.9598 35.5217 0.84882
Ti 6.2588 38.1849 2.32415e-15
Ti 6.9598 30.638 3.39528
Ti 6.2588 33.3011 2.54646
Ti 8.3618 35.0791 3.39528
Ti 7.6608 37.7423 2.54646
Ti 8.3618 30.1954 0.84882
Ti 7.6608 32.8585 2.03898e-15
Ti 9.7638 34.6365 0.84882
Ti 9.0628 37.2997 2.32415e-15
Ti 9.7638 29.7528 3.39528
Ti 9.0628 32.416 2.54646
Ti 11.1658 34.194 3.39528
Ti 10.4648 36.8571 2.54646
Ti 12.5678 38.6351 3.39528
Ti 11.1658 29.3102 0.84882
Ti 10.4648 31.9734 2.03898e-15
Ti 12.5678 33.7514 0.84882
Ti 11.8668 36.4145 2.32415e-15
Ti 13.9698 38.1925 0.84882
Ti 11.8668 31.5308 2.54646
Ti 13.9698 33.3088 3.39528
Ti 13.2688 35.972 2.54646
Ti 15.3718 37.75 3.39528
Ti 13.2688 31.0882 2.03898e-15
Ti 15.3718 32.8662 0.84882
Ti 14.6708 35.5294 2.32415e-15
Ti 14.6708 30.6456 2.54646
Ti 16.2233 35.0868 2.54646
Ti 16.2233 30.203 2.03898e-15
Ti 3.8568 35.9643 3.39528
Ti 3.8568 31.0805 0.84882
Ti 2.4548 35.5217 0.84882
Ti 3.1558 38.1849 2.03898e-15
Ti 2.4548 30.638 3.39528
Ti 3.1558 33.3011 2.54646
Ti 1.0528 35.0791 3.39528
Ti 1.7538 37.7423 2.54646
Ti 1.0528 30.1954 0.84882
Ti 1.7538 32.8585 1.75381e-15
Ti 22.6828 34.6365 0.84882
Ti 0.3518 37.2997 2.03898e-15
Ti 22.6828 29.7528 3.39528
Ti 0.3518 32.416 2.54646
Ti 21.2808 34.194 3.39528
Ti 21.9818 36.8571 2.54646
Ti 19.8788 38.6351 3.39528
Ti 21.2808 29.3102 0.84882
Ti 21.9818 31.9734 2.03898e-15
Ti 19.8788 33.7514 0.84882
Ti 20.5798 36.4145 2.32415e-15
Ti 18.4768 38.1925 0.84882
Ti 20.5798 31.5308 2.54646
Ti 18.4768 33.3088 3.39528
Ti 19.1778 35.972 2.54646
Ti 17.0748 37.75 3.39528
Ti 19.1778 31.0882 2.03898e-15
Ti 17.0748 32.8662 0.84882
Ti 17.7758 35.5294 2.32415e-15
Ti 17.7758 30.6456 2.54646
