64
Model 1
Ti 5.4681 6.66176 3.39528
Ti 4.7671 9.32493 2.54646
Ti 5.4681 1.778 0.84882
Ti 4.7671 4.44117 4.27758e-17
Ti 6.8701 6.21917 0.84882
Ti 6.1691 8.88234 6.1312e-16
Ti 6.8701 1.33541 3.39528
Ti 6.1691 3.99858 2.54646
Ti 8.2721 5.77658 3.39528
Ti 7.5711 8.43976 2.54646
Ti 8.2721 0.892824 0.84882
Ti 7.5711 3.556 3.27948e-16
Ti 9.6741 5.334 0.84882
Ti 8.9731 7.99717 6.1312e-16
Ti 9.6741 0.450237 3.39528
Ti 8.9731 3.11341 2.54646
Ti 11.0761 4.89141 3.39528
Ti 10.3751 7.55458 2.54646
Ti 12.4781 9.33258 3.39528
Ti 11.0761 0.00765032 0.84882
Ti 10.3751 2.67082 3.27948e-16
Ti 12.4781 4.44882 0.84882
Ti 11.7771 7.11199 6.1312e-16
Ti 13.8801 8.88999 0.84882
Ti 11.7771 2.22824 2.54646
Ti 13.8801 4.00623 3.39528
Ti 13.1791 6.66941 2.54646
Ti 15.2821 8.44741 3.39528
Ti 13.1791 1.78565 3.27948e-16
Ti 15.2821 3.56365 0.84882
Ti 14.5811 6.22682 6.1312e-16
Ti 14.5811 1.34306 2.54646
Ti 15.9841 5.78423 2.54646
Ti 15.9841 0.900475 3.27948e-16
Ti 4.0661 6.66176 3.39528
Ti 4.0661 1.778 0.84882
Ti 2.6641 6.21917 0.84882
Ti 3.3651 8.88234 3.27948e-16
Ti 2.6641 1.33541 3.39528
Ti 3.3651 3.99858 2.54646
Ti 1.2621 5.77658 3.39528
Ti 1.9631 8.43976 2.54646
Ti 1.2621 0.892824 0.84882
Ti 1.9631 3.556 4.27758e-17
Ti 22.2941 5.334 0.84882
Ti 0.5611 7.99717 3.27948e-16
Ti 22.2941 0.450237 3.39528
Ti 0.5611 3.11341 2.54646
Ti 20.8921 4.89141 3.39528
Ti 21.5931 7.55458 2.54646
Ti 19.4901 9.33258 3.39528
Ti 20.8921 0.00765032 0.84882
Ti 21.5931 2.67082 3.27948e-16
Ti 19.4901 4.44882 0.84882
Ti 20.1911 7.11199 6.1312e-16
Ti 18.0881 8.88999 0.84882
Ti 20.1911 2.22824 2.54646
Ti 18.0881 4.00623 3.39528
Ti 18.7891 6.66941 2.54646
Ti 16.6861 8.44741 3.39528
Ti 18.7891 1.78565 3.27948e-16
Ti 16.6861 3.56365 0.84882
Ti 17.3871 6.22682 6.1312e-16
Ti 17.3871 1.34306 2.54646
