256
Model 1
Ti 5.4378 6.66176 3.39528
Ti 4.7873 9.32493 2.54646
Ti 5.4378 1.778 0.84882
Ti 4.7873 4.44117 4.27758e-17
Ti 6.8398 6.21917 0.84882
Ti 6.1388 8.88234 6.1312e-16
Ti 6.8398 1.33541 3.39528
Ti 6.1388 3.99858 2.54646
Ti 8.2418 5.77658 3.39528
Ti 7.5408 8.43976 2.54646
Ti 8.2418 0.892824 0.84882
Ti 7.5408 3.556 3.27948e-16
Ti 9.6438 5.334 0.84882
Ti 8.9428 7.99717 6.1312e-16
Ti 9.6438 0.450237 3.39528
Ti 8.9428 3.11341 2.54646
Ti 11.0458 4.89141 3.39528
Ti 10.3448 7.55458 2.54646
Ti 12.4478 9.33258 3.39528
Ti 11.0458 0.00765032 0.84882
Ti 10.3448 2.67082 3.27948e-16
Ti 12.4478 4.44882 0.84882
Ti 11.7468 7.11199 6.1312e-16
Ti 13.8498 8.88999 0.84882
Ti 11.7468 2.22824 2.54646
Ti 13.8498 4.00623 3.39528
Ti 13.1488 6.66941 2.54646
Ti 15.2518 8.44741 3.39528
Ti 13.1488 1.78565 3.27948e-16
Ti 15.2518 3.56365 0.84882
Ti 14.5508 6.22682 6.1312e-16
Ti 14.5508 1.34306 2.54646
Ti 15.9033 5.78423 2.54646
Ti 15.9033 0.900475 3.27948e-16
Ti 4.1368 6.66176 3.39528
Ti 4.1368 1.778 0.84882
Ti 2.7348 6.21917 0.84882
Ti 3.4358 8.88234 3.27948e-16
Ti 2.7348 1.33541 3.39528
Ti 3.4358 3.99858 2.54646
Ti 1.3328 5.77658 3.39528
Ti 2.0338 8.43976 2.54646
Ti 1.3328 0.892824 0.84882
Ti 2.0338 3.556 4.27758e-17
Ti 22.1628 5.334 0.84882
Ti 0.6318 7.99717 3.27948e-16
Ti 22.1628 0.450237 3.39528
Ti 0.6318 3.11341 2.54646
Ti 20.7608 4.89141 3.39528
Ti 21.4618 7.55458 2.54646
Ti 19.3588 9.33258 3.39528
Ti 20.7608 0.00765032 0.84882
Ti 21.4618 2.67082 3.27948e-16
Ti 19.3588 4.44882 0.84882
Ti 20.0598 7.11199 6.1312e-16
Ti 17.9568 8.88999 0.84882
Ti 20.0598 2.22824 2.54646
Ti 17.9568 4.00623 3.39528
Ti 18.6578 6.66941 2.54646
Ti 16.5548 8.44741 3.39528
Ti 18.6578 1.78565 3.27948e-16
Ti 16.5548 3.56365 0.84882
Ti 17.2558 6.22682 6.1312e-16
Ti 17.2558 1.34306 2.54646
Ti 5.4378 16.4293 3.39528
Ti 4.7873 19.0924 2.54646
Ti 5.4378 11.5455 0.84882
Ti 4.7873 14.2087 6.1312e-16
Ti 6.8398 15.9867 0.84882
Ti 6.1388 18.6499 1.18346e-15
Ti 6.8398 11.1029 3.39528
Ti 6.1388 13.7661 2.54646
Ti 8.2418 15.5441 3.39528
Ti 7.5408 18.2073 2.54646
Ti 8.2418 10.6603 0.84882
Ti 7.5408 13.3235 8.98291e-16
Ti 9.6438 15.1015 0.84882
Ti 8.9428 17.7647 1.18346e-15
Ti 9.6438 10.2178 3.39528
Ti 8.9428 12.8809 2.54646
Ti 11.0458 14.6589 3.39528
Ti 10.3448 17.3221 2.54646
Ti 12.4478 19.1001 3.39528
Ti 11.0458 9.77517 0.84882
Ti 10.3448 12.4383 8.98291e-16
Ti 12.4478 14.2163 0.84882
Ti 11.7468 16.8795 1.18346e-15
Ti 13.8498 18.6575 0.84882
Ti 11.7468 11.9958 2.54646
Ti 13.8498 13.7738 3.39528
Ti 13.1488 16.4369 2.54646
Ti 15.2518 18.2149 3.39528
Ti 13.1488 11.5532 8.98291e-16
Ti 15.2518 13.3312 0.84882
Ti 14.5508 15.9943 1.18346e-15
Ti 14.5508 11.1106 2.54646
Ti 15.9033 15.5517 2.54646
Ti 15.9033 10.668 8.98291e-16
Ti 4.1368 16.4293 3.39528
Ti 4.1368 11.5455 0.84882
Ti 2.7348 15.9867 0.84882
Ti 3.4358 18.6499 8.98291e-16
Ti 2.7348 11.1029 3.39528
Ti 3.4358 13.7661 2.54646
Ti 1.3328 15.5441 3.39528
Ti 2.0338 18.2073 2.54646
Ti 1.3328 10.6603 0.84882
Ti 2.0338 13.3235 6.1312e-16
Ti 22.1628 15.1015 0.84882
Ti 0.6318 17.7647 8.98291e-16
Ti 22.1628 10.2178 3.39528
Ti 0.6318 12.8809 2.54646
Ti 20.7608 14.6589 3.39528
Ti 21.4618 17.3221 2.54646
Ti 19.3588 19.1001 3.39528
Ti 20.7608 9.77517 0.84882
Ti 21.4618 12.4383 8.98291e-16
Ti 19.3588 14.2163 0.84882
Ti 20.0598 16.8795 1.18346e-15
Ti 17.9568 18.6575 0.84882
Ti 20.0598 11.9958 2.54646
Ti 17.9568 13.7738 3.39528
Ti 18.6578 16.4369 2.54646
Ti 16.5548 18.2149 3.39528
Ti 18.6578 11.5532 8.98291e-16
Ti 16.5548 13.3312 0.84882
Ti 17.2558 15.9943 1.18346e-15
Ti 17.2558 11.1106 2.54646
Ti 5.4378 26.1968 3.39528
Ti 4.7873 28.86 2.54646
Ti 5.4378 21.313 0.84882
Ti 4.7873 23.9762 1.18346e-15
Ti 6.8398 25.7542 0.84882
Ti 6.1388 28.4174 1.75381e-15
Ti 6.8398 20.8704 3.39528
Ti 6.1388 23.5336 2.54646
Ti 8.2418 25.3116 3.39528
Ti 7.5408 27.9748 2.54646
Ti 8.2418 20.4279 0.84882
Ti 7.5408 23.091 1.46864e-15
Ti 9.6438 24.869 0.84882
Ti 8.9428 27.5322 1.75381e-15
Ti 9.6438 19.9853 3.39528
Ti 8.9428 22.6484 2.54646
Ti 11.0458 24.4264 3.39528
Ti 10.3448 27.0896 2.54646
Ti 12.4478 28.8676 3.39528
Ti 11.0458 19.5427 0.84882
Ti 10.3448 22.2059 1.46864e-15
Ti 12.4478 23.9839 0.84882
Ti 11.7468 26.647 1.75381e-15
Ti 13.8498 28.425 0.84882
Ti 11.7468 21.7633 2.54646
Ti 13.8498 23.5413 3.39528
Ti 13.1488 26.2044 2.54646
Ti 15.2518 27.9824 3.39528
Ti 13.1488 21.3207 1.46864e-15
Ti 15.2518 23.0987 0.84882
Ti 14.5508 25.7619 1.75381e-15
Ti 14.5508 20.8781 2.54646
Ti 15.9033 25.3193 2.54646
Ti 15.9033 20.4355 1.46864e-15
Ti 4.1368 26.1968 3.39528
Ti 4.1368 21.313 0.84882
Ti 2.7348 25.7542 0.84882
Ti 3.4358 28.4174 1.46864e-15
Ti 2.7348 20.8704 3.39528
Ti 3.4358 23.5336 2.54646
Ti 1.3328 25.3116 3.39528
Ti 2.0338 27.9748 2.54646
Ti 1.3328 20.4279 0.84882
Ti 2.0338 23.091 1.18346e-15
Ti 22.1628 24.869 0.84882
Ti 0.6318 27.5322 1.46864e-15
Ti 22.1628 19.9853 3.39528
Ti 0.6318 22.6484 2.54646
Ti 20.7608 24.4264 3.39528
Ti 21.4618 27.0896 2.54646
Ti 19.3588 28.8676 3.39528
Ti 20.7608 19.5427 0.84882
Ti 21.4618 22.2059 1.46864e-15
Ti 19.3588 23.9839 0.84882
Ti 20.0598 26.647 1.75381e-15
Ti 17.9568 28.425 0.84882
Ti 20.0598 21.7633 2.54646
Ti 17.9568 23.5413 3.39528
Ti 18.6578 26.2044 2.54646
Ti 16.5548 27.9824 3.39528
Ti 18.6578 21.3207 1.46864e-15
Ti 16.5548 23.0987 0.84882
Ti 17.2558 25.7619 1.75381e-15
Ti 17.2558 20.8781 2.54646
Ti 5.4378 35.9643 3.39528
Ti 4.7873 38.6275 2.54646
Ti 5.4378 31.0805 0.84882
Ti 4.7873 33.7437 1.75381e-15
Ti 6.8398 35.5217 0.84882
Ti 6.1388 38.1849 2.32415e-15
Ti 6.8398 30.638 3.39528
Ti 6.1388 33.3011 2.54646
Ti 8.2418 35.0791 3.39528
Ti 7.5408 37.7423 2.54646
Ti 8.2418 30.1954 0.84882
Ti 7.5408 32.8585 2.03898e-15
Ti 9.6438 34.6365 0.84882
Ti 8.9428 37.2997 2.32415e-15
Ti 9.6438 29.7528 3.39528
Ti 8.9428 32.416 2.54646
Ti 11.0458 34.194 3.39528
Ti 10.3448 36.8571 2.54646
Ti 12.4478 38.6351 3.39528
Ti 11.0458 29.3102 0.84882
Ti 10.3448 31.9734 2.03898e-15
Ti 12.4478 33.7514 0.84882
Ti 11.7468 36.4145 2.32415e-15
Ti 13.8498 38.1925 0.84882
Ti 11.7468 31.5308 2.54646
Ti 13.8498 33.3088 3.39528
Ti 13.1488 35.972 2.54646
Ti 15.2518 37.75 3.39528
Ti 13.1488 31.0882 2.03898e-15
Ti 15.2518 32.8662 0.84882
Ti 14.5508 35.5294 2.32415e-15
Ti 14.5508 30.6456 2.54646
Ti 15.9033 35.0868 2.54646
Ti 15.9033 30.203 2.03898e-15
Ti 4.1368 35.9643 3.39528
Ti 4.1368 31.0805 0.84882
Ti 2.7348 35.5217 0.84882
Ti 3.4358 38.1849 2.03898e-15
Ti 2.7348 30.638 3.39528
Ti 3.4358 33.3011 2.54646
Ti 1.3328 35.0791 3.39528
Ti 2.0338 37.7423 2.54646
Ti 1.3328 30.1954 0.84882
Ti 2.0338 32.8585 1.75381e-15
Ti 22.1628 34.6365 0.84882
Ti 0.6318 37.2997 2.03898e-15
Ti 22.1628 29.7528 3.39528
Ti 0.6318 32.416 2.54646
Ti 20.7608 34.194 3.39528
Ti 21.4618 36.8571 2.54646
Ti 19.3588 38.6351 3.39528
Ti 20.7608 29.3102 0.84882
Ti 21.4618 31.9734 2.03898e-15
Ti 19.3588 33.7514 0.84882
Ti 20.0598 36.4145 2.32415e-15
Ti 17.9568 38.1925 0.84882
Ti 20.0598 31.5308 2.54646
Ti 17.9568 33.3088 3.39528
Ti 18.6578 35.972 2.54646
Ti 16.5548 37.75 3.39528
Ti 18.6578 31.0882 2.03898e-15
Ti 16.5548 32.8662 0.84882
Ti 17.2558 35.5294 2.32415e-15
Ti 17.2558 30.6456 2.54646
