8
Model 1
Ti 0 0 0
Ti 1.71398 0 2.3925
Ti 0 2.9687 0
Ti 1.71398 2.9687 2.3925
Ti 2.57097 -1.48435 0
Ti 4.28495 -1.48435 2.3925
Ti 2.57097 1.48435 0
Ti 4.28495 1.48435 2.3925
8
Model 2
Ti 0 0 0
Ti 1.71398 0 2.3925
Ti 0 2.9687 0
Ti 1.71398 2.9687 2.3925
Ti 2.57097 -1.48435 0
Ti 4.28495 -1.48435 2.3925
Ti 2.57097 1.48435 0
Ti 4.28495 1.48435 2.3925
