124
Model 1
Co -6.99625 -9.23861 1.975
Co -6.99625 -8.02763 -0.59388
Co -4.98807 -9.8441 -1.45017
Co -6.99625 -4.39469 1.1187
Co -6.99625 -3.18371 -1.45017
Co -6.99625 -6.81665 1.54685
Co -4.98807 -6.21116 0.262412
Co -6.99625 -5.60567 -1.02203
Co -2.97988 -9.23861 1.975
Co -4.98807 -8.63312 0.690558
Co -2.97988 -8.02763 -0.59388
Co -4.98807 -7.42214 -1.87832
Co -0.971702 -9.8441 -1.45017
Co -6.99625 0.449235 0.262412
Co -4.98807 -2.57822 1.975
Co -6.99625 -1.97273 0.690558
Co -4.98807 -1.36724 -0.59388
Co -6.99625 -0.761746 -1.87832
Co -2.97988 -4.39469 1.1187
Co -4.98807 -3.7892 -0.165734
Co -2.97988 -3.18371 -1.45017
Co -2.97988 -6.81665 1.54685
Co -0.971702 -6.21116 0.262412
Co -2.97988 -5.60567 -1.02203
Co 1.03648 -9.23861 1.975
Co -0.971702 -8.63312 0.690558
Co 1.03648 -8.02763 -0.59388
Co -0.971702 -7.42214 -1.87832
Co 3.04466 -9.8441 -1.45017
Co -6.99625 4.08217 1.975
Co -6.99625 5.29315 -0.59388
Co -4.98807 2.2657 1.1187
Co -6.99625 2.87119 -0.165734
Co -4.98807 3.47668 -1.45017
Co -4.98807 -0.156255 1.54685
Co -2.97988 0.449235 0.262412
Co -4.98807 1.05472 -1.02203
Co -0.971702 -2.57822 1.975
Co -2.97988 -1.97273 0.690558
Co -0.971702 -1.36724 -0.59388
Co -2.97988 -0.761746 -1.87832
Co 1.03648 -4.39469 1.1187
Co -0.971702 -3.7892 -0.165734
Co 1.03648 -3.18371 -1.45017
Co 1.03648 -6.81665 1.54685
Co 3.04466 -6.21116 0.262412
Co 1.03648 -5.60567 -1.02203
Co 5.05285 -9.23861 1.975
Co 3.04466 -8.63312 0.690558
Co 5.05285 -8.02763 -0.59388
Co 3.04466 -7.42214 -1.87832
Co 7.06103 -9.8441 -1.45017
Co -6.99625 8.9261 1.1187
Co -6.99625 10.1371 -1.45017
Co -6.99625 6.50413 1.54685
Co -4.98807 7.10962 0.262412
Co -6.99625 7.71511 -1.02203
Co -2.97988 4.08217 1.975
Co -4.98807 4.68766 0.690558
Co -2.97988 5.29315 -0.59388
Co -4.98807 5.89864 -1.87832
Co -0.971702 2.2657 1.1187
Co -2.97988 2.87119 -0.165734
Co -0.971702 3.47668 -1.45017
Co -0.971702 -0.156255 1.54685
Co 1.03648 0.449235 0.262412
Co -0.971702 1.05472 -1.02203
Co 3.04466 -2.57822 1.975
Co 1.03648 -1.97273 0.690558
Co 3.04466 -1.36724 -0.59388
Co 1.03648 -0.761746 -1.87832
Co 5.05285 -4.39469 1.1187
Co 3.04466 -3.7892 -0.165734
Co 5.05285 -3.18371 -1.45017
Co 5.05285 -6.81665 1.54685
Co 7.06103 -6.21116 0.262412
Co 5.05285 -5.60567 -1.02203
Co 7.06103 -8.63312 0.690558
Co 7.06103 -7.42214 -1.87832
Co -2.97988 8.9261 1.1187
Co -4.98807 9.53159 -0.165734
Co -2.97988 10.1371 -1.45017
Co -2.97988 6.50413 1.54685
Co -0.971702 7.10962 0.262412
Co -2.97988 7.71511 -1.02203
Co 1.03648 4.08217 1.975
Co -0.971702 4.68766 0.690558
Co 1.03648 5.29315 -0.59388
Co -0.971702 5.89864 -1.87832
Co 3.04466 2.2657 1.1187
Co 1.03648 2.87119 -0.165734
Co 3.04466 3.47668 -1.45017
Co 3.04466 -0.156255 1.54685
Co 5.05285 0.449235 0.262412
Co 3.04466 1.05472 -1.02203
Co 7.06103 -2.57822 1.975
Co 5.05285 -1.97273 0.690558
Co 7.06103 -1.36724 -0.59388
Co 5.05285 -0.761746 -1.87832
Co 7.06103 -3.7892 -0.165734
Co 1.03648 8.9261 1.1187
Co -0.971702 9.53159 -0.165734
Co 1.03648 10.1371 -1.45017
Co 1.03648 6.50413 1.54685
Co 3.04466 7.10962 0.262412
Co 1.03648 7.71511 -1.02203
Co 5.05285 4.08217 1.975
Co 3.04466 4.68766 0.690558
Co 5.05285 5.29315 -0.59388
Co 3.04466 5.89864 -1.87832
Co 7.06103 2.2657 1.1187
Co 5.05285 2.87119 -0.165734
Co 7.06103 3.47668 -1.45017
Co 7.06103 -0.156255 1.54685
Co 7.06103 1.05472 -1.02203
Co 5.05285 8.9261 1.1187
Co 3.04466 9.53159 -0.165734
Co 5.05285 10.1371 -1.45017
Co 5.05285 6.50413 1.54685
Co 7.06103 7.10962 0.262412
Co 5.05285 7.71511 -1.02203
Co 7.06103 4.68766 0.690558
Co 7.06103 5.89864 -1.87832
Co 7.06103 9.53159 -0.165734
