532
Model 1
Co -0.992767 -18.2387 -17.719
Co -0.992767 -18.2387 -8.29976
Co -0.992767 -17.0277 -10.8686
Co -0.992767 -15.8167 -13.4375
Co -0.992767 -14.6057 -16.0064
Co -0.992767 -13.3948 -18.5753
Co 1.01542 -18.8442 -11.7249
Co -0.992767 -18.2387 -13.0094
Co 1.01542 -17.6332 -14.2938
Co -0.992767 -17.0277 -15.5782
Co 1.01542 -16.4222 -16.8627
Co -0.992767 -15.8167 -18.1471
Co 1.01542 -18.8442 -16.4345
Co 1.01542 -17.6332 -19.0034
Co -0.992767 -18.2387 1.11946
Co -0.992767 -17.0277 -1.44942
Co -0.992767 -15.8167 -4.0183
Co -0.992767 -14.6057 -6.58717
Co -0.992767 -13.3948 -9.15605
Co -0.992767 -12.1838 -11.7249
Co -0.992767 -10.9728 -14.2938
Co -0.992767 -9.76182 -16.8627
Co 1.01542 -18.8442 -2.30571
Co -0.992767 -18.2387 -3.59015
Co 1.01542 -17.6332 -4.87459
Co -0.992767 -17.0277 -6.15903
Co 1.01542 -16.4222 -7.44346
Co -0.992767 -15.8167 -8.7279
Co 1.01542 -15.2112 -10.0123
Co -0.992767 -14.6057 -11.2968
Co 1.01542 -14.0002 -12.5812
Co -0.992767 -13.3948 -13.8657
Co 1.01542 -12.7893 -15.1501
Co -0.992767 -12.1838 -16.4345
Co 1.01542 -11.5783 -17.719
Co -0.992767 -10.9728 -19.0034
Co 1.01542 -18.8442 -7.01532
Co 1.01542 -17.6332 -9.5842
Co 1.01542 -16.4222 -12.1531
Co 1.01542 -15.2112 -14.7219
Co 1.01542 -14.0002 -17.2908
Co -0.992767 -18.2387 10.5387
Co -0.992767 -17.0277 7.96979
Co -0.992767 -15.8167 5.40092
Co -0.992767 -14.6057 2.83204
Co -0.992767 -13.3948 0.263165
Co -0.992767 -12.1838 -2.30571
Co -0.992767 -10.9728 -4.87459
Co -0.992767 -9.76182 -7.44346
Co -0.992767 -8.55084 -10.0123
Co -0.992767 -7.33986 -12.5812
Co -0.992767 -6.12888 -15.1501
Co -0.992767 -4.9179 -17.719
Co 1.01542 -18.8442 7.1135
Co -0.992767 -18.2387 5.82906
Co 1.01542 -17.6332 4.54463
Co -0.992767 -17.0277 3.26019
Co 1.01542 -16.4222 1.97575
Co -0.992767 -15.8167 0.691311
Co 1.01542 -15.2112 -0.593127
Co -0.992767 -14.6057 -1.87757
Co 1.01542 -14.0002 -3.162
Co -0.992767 -13.3948 -4.44644
Co 1.01542 -12.7893 -5.73088
Co -0.992767 -12.1838 -7.01532
Co 1.01542 -11.5783 -8.29976
Co -0.992767 -10.9728 -9.5842
Co 1.01542 -10.3673 -10.8686
Co -0.992767 -9.76182 -12.1531
Co 1.01542 -9.15633 -13.4375
Co -0.992767 -8.55084 -14.7219
Co 1.01542 -7.94535 -16.0064
Co -0.992767 -7.33986 -17.2908
Co 1.01542 -6.73437 -18.5753
Co 1.01542 -18.8442 2.4039
Co 1.01542 -17.6332 -0.164981
Co 1.01542 -16.4222 -2.73386
Co 1.01542 -15.2112 -5.30273
Co 1.01542 -14.0002 -7.87161
Co 1.01542 -12.7893 -10.4405
Co 1.01542 -11.5783 -13.0094
Co 1.01542 -10.3673 -15.5782
Co 1.01542 -9.15633 -18.1471
Co -0.992767 -18.2387 19.9579
Co -0.992767 -17.0277 17.389
Co -0.992767 -15.8167 14.8201
Co -0.992767 -14.6057 12.2513
Co -0.992767 -13.3948 9.68238
Co -0.992767 -12.1838 7.1135
Co -0.992767 -10.9728 4.54463
Co -0.992767 -9.76182 1.97575
Co -0.992767 -8.55084 -0.593127
Co -0.992767 -7.33986 -3.162
Co -0.992767 -6.12888 -5.73088
Co -0.992767 -4.9179 -8.29976
Co -0.992767 -3.70692 -10.8686
Co -0.992767 -2.49594 -13.4375
Co -0.992767 -1.28496 -16.0064
Co -0.992767 -0.073979 -18.5753
Co 1.01542 -18.8442 16.5327
Co -0.992767 -18.2387 15.2483
Co 1.01542 -17.6332 13.9638
Co -0.992767 -17.0277 12.6794
Co 1.01542 -16.4222 11.395
Co -0.992767 -15.8167 10.1105
Co 1.01542 -15.2112 8.82609
Co -0.992767 -14.6057 7.54165
Co 1.01542 -14.0002 6.25721
Co -0.992767 -13.3948 4.97277
Co 1.01542 -12.7893 3.68833
Co -0.992767 -12.1838 2.4039
Co 1.01542 -11.5783 1.11946
Co -0.992767 -10.9728 -0.164981
Co 1.01542 -10.3673 -1.44942
Co -0.992767 -9.76182 -2.73386
Co 1.01542 -9.15633 -4.0183
Co -0.992767 -8.55084 -5.30273
Co 1.01542 -7.94535 -6.58717
Co -0.992767 -7.33986 -7.87161
Co 1.01542 -6.73437 -9.15605
Co -0.992767 -6.12888 -10.4405
Co 1.01542 -5.52339 -11.7249
Co -0.992767 -4.9179 -13.0094
Co 1.01542 -4.31241 -14.2938
Co -0.992767 -3.70692 -15.5782
Co 1.01542 -3.10143 -16.8627
Co -0.992767 -2.49594 -18.1471
Co 1.01542 -18.8442 11.8231
Co 1.01542 -17.6332 9.25423
Co 1.01542 -16.4222 6.68536
Co 1.01542 -15.2112 4.11648
Co 1.01542 -14.0002 1.5476
Co 1.01542 -12.7893 -1.02127
Co 1.01542 -11.5783 -3.59015
Co 1.01542 -10.3673 -6.15903
Co 1.01542 -9.15633 -8.7279
Co 1.01542 -7.94535 -11.2968
Co 1.01542 -6.73437 -13.8657
Co 1.01542 -5.52339 -16.4345
Co 1.01542 -4.31241 -19.0034
Co -0.992767 -13.3948 19.1016
Co -0.992767 -12.1838 16.5327
Co -0.992767 -10.9728 13.9638
Co -0.992767 -9.76182 11.395
Co -0.992767 -8.55084 8.82609
Co -0.992767 -7.33986 6.25721
Co -0.992767 -6.12888 3.68833
Co -0.992767 -4.9179 1.11946
Co -0.992767 -3.70692 -1.44942
Co -0.992767 -2.49594 -4.0183
Co -0.992767 -1.28496 -6.58717
Co -0.992767 -0.073979 -9.15605
Co -0.992767 1.137 -11.7249
Co -0.992767 2.34798 -14.2938
Co -0.992767 3.55896 -16.8627
Co -0.992767 -15.8167 19.5297
Co 1.01542 -15.2112 18.2453
Co -0.992767 -14.6057 16.9609
Co 1.01542 -14.0002 15.6764
Co -0.992767 -13.3948 14.392
Co 1.01542 -12.7893 13.1075
Co -0.992767 -12.1838 11.8231
Co 1.01542 -11.5783 10.5387
Co -0.992767 -10.9728 9.25423
Co 1.01542 -10.3673 7.96979
Co -0.992767 -9.76182 6.68536
Co 1.01542 -9.15633 5.40092
Co -0.992767 -8.55084 4.11648
Co 1.01542 -7.94535 2.83204
Co -0.992767 -7.33986 1.5476
Co 1.01542 -6.73437 0.263165
Co -0.992767 -6.12888 -1.02127
Co 1.01542 -5.52339 -2.30571
Co -0.992767 -4.9179 -3.59015
Co 1.01542 -4.31241 -4.87459
Co -0.992767 -3.70692 -6.15903
Co 1.01542 -3.10143 -7.44346
Co -0.992767 -2.49594 -8.7279
Co 1.01542 -1.89045 -10.0123
Co -0.992767 -1.28496 -11.2968
Co 1.01542 -0.679469 -12.5812
Co -0.992767 -0.073979 -13.8657
Co 1.01542 0.531511 -15.1501
Co -0.992767 1.137 -16.4345
Co 1.01542 1.74249 -17.719
Co -0.992767 2.34798 -19.0034
Co 1.01542 -17.6332 18.6734
Co 1.01542 -16.4222 16.1046
Co 1.01542 -15.2112 13.5357
Co 1.01542 -14.0002 10.9668
Co 1.01542 -12.7893 8.39794
Co 1.01542 -11.5783 5.82906
Co 1.01542 -10.3673 3.26019
Co 1.01542 -9.15633 0.691311
Co 1.01542 -7.94535 -1.87757
Co 1.01542 -6.73437 -4.44644
Co 1.01542 -5.52339 -7.01532
Co 1.01542 -4.31241 -9.5842
Co 1.01542 -3.10143 -12.1531
Co 1.01542 -1.89045 -14.7219
Co 1.01542 -0.679469 -17.2908
Co -0.992767 -8.55084 18.2453
Co -0.992767 -7.33986 15.6764
Co -0.992767 -6.12888 13.1075
Co -0.992767 -4.9179 10.5387
Co -0.992767 -3.70692 7.96979
Co -0.992767 -2.49594 5.40092
Co -0.992767 -1.28496 2.83204
Co -0.992767 -0.073979 0.263165
Co -0.992767 1.137 -2.30571
Co -0.992767 2.34798 -4.87459
Co -0.992767 3.55896 -7.44346
Co -0.992767 4.76994 -10.0123
Co -0.992767 5.98092 -12.5812
Co -0.992767 7.1919 -15.1501
Co -0.992767 8.40288 -17.719
Co 1.01542 -11.5783 19.9579
Co -0.992767 -10.9728 18.6734
Co 1.01542 -10.3673 17.389
Co -0.992767 -9.76182 16.1046
Co 1.01542 -9.15633 14.8201
Co -0.992767 -8.55084 13.5357
Co 1.01542 -7.94535 12.2513
Co -0.992767 -7.33986 10.9668
Co 1.01542 -6.73437 9.68238
Co -0.992767 -6.12888 8.39794
Co 1.01542 -5.52339 7.1135
Co -0.992767 -4.9179 5.82906
Co 1.01542 -4.31241 4.54463
Co -0.992767 -3.70692 3.26019
Co 1.01542 -3.10143 1.97575
Co -0.992767 -2.49594 0.691311
Co 1.01542 -1.89045 -0.593127
Co -0.992767 -1.28496 -1.87757
Co 1.01542 -0.679469 -3.162
Co -0.992767 -0.073979 -4.44644
Co 1.01542 0.531511 -5.73088
Co -0.992767 1.137 -7.01532
Co 1.01542 1.74249 -8.29976
Co -0.992767 2.34798 -9.5842
Co 1.01542 2.95347 -10.8686
Co -0.992767 3.55896 -12.1531
Co 1.01542 4.16445 -13.4375
Co -0.992767 4.76994 -14.7219
Co 1.01542 5.37543 -16.0064
Co -0.992767 5.98092 -17.2908
Co 1.01542 6.58641 -18.5753
Co 1.01542 -14.0002 20.386
Co 1.01542 -12.7893 17.8172
Co 1.01542 -11.5783 15.2483
Co 1.01542 -10.3673 12.6794
Co 1.01542 -9.15633 10.1105
Co 1.01542 -7.94535 7.54165
Co 1.01542 -6.73437 4.97277
Co 1.01542 -5.52339 2.4039
Co 1.01542 -4.31241 -0.164981
Co 1.01542 -3.10143 -2.73386
Co 1.01542 -1.89045 -5.30273
Co 1.01542 -0.679469 -7.87161
Co 1.01542 0.531511 -10.4405
Co 1.01542 1.74249 -13.0094
Co 1.01542 2.95347 -15.5782
Co 1.01542 4.16445 -18.1471
Co -0.992767 -4.9179 19.9579
Co -0.992767 -3.70692 17.389
Co -0.992767 -2.49594 14.8201
Co -0.992767 -1.28496 12.2513
Co -0.992767 -0.073979 9.68238
Co -0.992767 1.137 7.1135
Co -0.992767 2.34798 4.54463
Co -0.992767 3.55896 1.97575
Co -0.992767 4.76994 -0.593127
Co -0.992767 5.98092 -3.162
Co -0.992767 7.1919 -5.73088
Co -0.992767 8.40288 -8.29976
Co -0.992767 9.61386 -10.8686
Co -0.992767 10.8248 -13.4375
Co -0.992767 12.0358 -16.0064
Co -0.992767 13.2468 -18.5753
Co -0.992767 -7.33986 20.386
Co 1.01542 -6.73437 19.1016
Co -0.992767 -6.12888 17.8172
Co 1.01542 -5.52339 16.5327
Co -0.992767 -4.9179 15.2483
Co 1.01542 -4.31241 13.9638
Co -0.992767 -3.70692 12.6794
Co 1.01542 -3.10143 11.395
Co -0.992767 -2.49594 10.1105
Co 1.01542 -1.89045 8.82609
Co -0.992767 -1.28496 7.54165
Co 1.01542 -0.679469 6.25721
Co -0.992767 -0.073979 4.97277
Co 1.01542 0.531511 3.68833
Co -0.992767 1.137 2.4039
Co 1.01542 1.74249 1.11946
Co -0.992767 2.34798 -0.164981
Co 1.01542 2.95347 -1.44942
Co -0.992767 3.55896 -2.73386
Co 1.01542 4.16445 -4.0183
Co -0.992767 4.76994 -5.30273
Co 1.01542 5.37543 -6.58717
Co -0.992767 5.98092 -7.87161
Co 1.01542 6.58641 -9.15605
Co -0.992767 7.1919 -10.4405
Co 1.01542 7.79739 -11.7249
Co -0.992767 8.40288 -13.0094
Co 1.01542 9.00837 -14.2938
Co -0.992767 9.61386 -15.5782
Co 1.01542 10.2194 -16.8627
Co -0.992767 10.8248 -18.1471
Co 1.01542 -9.15633 19.5297
Co 1.01542 -7.94535 16.9609
Co 1.01542 -6.73437 14.392
Co 1.01542 -5.52339 11.8231
Co 1.01542 -4.31241 9.25423
Co 1.01542 -3.10143 6.68536
Co 1.01542 -1.89045 4.11648
Co 1.01542 -0.679469 1.5476
Co 1.01542 0.531511 -1.02127
Co 1.01542 1.74249 -3.59015
Co 1.01542 2.95347 -6.15903
Co 1.01542 4.16445 -8.7279
Co 1.01542 5.37543 -11.2968
Co 1.01542 6.58641 -13.8657
Co 1.01542 7.79739 -16.4345
Co 1.01542 9.00837 -19.0034
Co -0.992767 -0.073979 19.1016
Co -0.992767 1.137 16.5327
Co -0.992767 2.34798 13.9638
Co -0.992767 3.55896 11.395
Co -0.992767 4.76994 8.82609
Co -0.992767 5.98092 6.25721
Co -0.992767 7.1919 3.68833
Co -0.992767 8.40288 1.11946
Co -0.992767 9.61386 -1.44942
Co -0.992767 10.8248 -4.0183
Co -0.992767 12.0358 -6.58717
Co -0.992767 13.2468 -9.15605
Co -0.992767 14.4578 -11.7249
Co -0.992767 15.6688 -14.2938
Co -0.992767 16.8797 -16.8627
Co -0.992767 -2.49594 19.5297
Co 1.01542 -1.89045 18.2453
Co -0.992767 -1.28496 16.9609
Co 1.01542 -0.679469 15.6764
Co -0.992767 -0.073979 14.392
Co 1.01542 0.531511 13.1075
Co -0.992767 1.137 11.8231
Co 1.01542 1.74249 10.5387
Co -0.992767 2.34798 9.25423
Co 1.01542 2.95347 7.96979
Co -0.992767 3.55896 6.68536
Co 1.01542 4.16445 5.40092
Co -0.992767 4.76994 4.11648
Co 1.01542 5.37543 2.83204
Co -0.992767 5.98092 1.5476
Co 1.01542 6.58641 0.263165
Co -0.992767 7.1919 -1.02127
Co 1.01542 7.79739 -2.30571
Co -0.992767 8.40288 -3.59015
Co 1.01542 9.00837 -4.87459
Co -0.992767 9.61386 -6.15903
Co 1.01542 10.2194 -7.44346
Co -0.992767 10.8248 -8.7279
Co 1.01542 11.4303 -10.0123
Co -0.992767 12.0358 -11.2968
Co 1.01542 12.6413 -12.5812
Co -0.992767 13.2468 -13.8657
Co 1.01542 13.8523 -15.1501
Co -0.992767 14.4578 -16.4345
Co 1.01542 15.0633 -17.719
Co -0.992767 15.6688 -19.0034
Co 1.01542 -4.31241 18.6734
Co 1.01542 -3.10143 16.1046
Co 1.01542 -1.89045 13.5357
Co 1.01542 -0.679469 10.9668
Co 1.01542 0.531511 8.39794
Co 1.01542 1.74249 5.82906
Co 1.01542 2.95347 3.26019
Co 1.01542 4.16445 0.691311
Co 1.01542 5.37543 -1.87757
Co 1.01542 6.58641 -4.44644
Co 1.01542 7.79739 -7.01532
Co 1.01542 9.00837 -9.5842
Co 1.01542 10.2194 -12.1531
Co 1.01542 11.4303 -14.7219
Co 1.01542 12.6413 -17.2908
Co -0.992767 4.76994 18.2453
Co -0.992767 5.98092 15.6764
Co -0.992767 7.1919 13.1075
Co -0.992767 8.40288 10.5387
Co -0.992767 9.61386 7.96979
Co -0.992767 10.8248 5.40092
Co -0.992767 12.0358 2.83204
Co -0.992767 13.2468 0.263165
Co -0.992767 14.4578 -2.30571
Co -0.992767 15.6688 -4.87459
Co -0.992767 16.8797 -7.44346
Co -0.992767 18.0907 -10.0123
Co -0.992767 19.3017 -12.5812
Co -0.992767 20.5127 -15.1501
Co 1.01542 1.74249 19.9579
Co -0.992767 2.34798 18.6734
Co 1.01542 2.95347 17.389
Co -0.992767 3.55896 16.1046
Co 1.01542 4.16445 14.8201
Co -0.992767 4.76994 13.5357
Co 1.01542 5.37543 12.2513
Co -0.992767 5.98092 10.9668
Co 1.01542 6.58641 9.68238
Co -0.992767 7.1919 8.39794
Co 1.01542 7.79739 7.1135
Co -0.992767 8.40288 5.82906
Co 1.01542 9.00837 4.54463
Co -0.992767 9.61386 3.26019
Co 1.01542 10.2194 1.97575
Co -0.992767 10.8248 0.691311
Co 1.01542 11.4303 -0.593127
Co -0.992767 12.0358 -1.87757
Co 1.01542 12.6413 -3.162
Co -0.992767 13.2468 -4.44644
Co 1.01542 13.8523 -5.73088
Co -0.992767 14.4578 -7.01532
Co 1.01542 15.0633 -8.29976
Co -0.992767 15.6688 -9.5842
Co 1.01542 16.2743 -10.8686
Co -0.992767 16.8797 -12.1531
Co 1.01542 17.4852 -13.4375
Co -0.992767 18.0907 -14.7219
Co 1.01542 18.6962 -16.0064
Co -0.992767 19.3017 -17.2908
Co 1.01542 19.9072 -18.5753
Co 1.01542 -0.679469 20.386
Co 1.01542 0.531511 17.8172
Co 1.01542 1.74249 15.2483
Co 1.01542 2.95347 12.6794
Co 1.01542 4.16445 10.1105
Co 1.01542 5.37543 7.54165
Co 1.01542 6.58641 4.97277
Co 1.01542 7.79739 2.4039
Co 1.01542 9.00837 -0.164981
Co 1.01542 10.2194 -2.73386
Co 1.01542 11.4303 -5.30273
Co 1.01542 12.6413 -7.87161
Co 1.01542 13.8523 -10.4405
Co 1.01542 15.0633 -13.0094
Co 1.01542 16.2743 -15.5782
Co 1.01542 17.4852 -18.1471
Co -0.992767 8.40288 19.9579
Co -0.992767 9.61386 17.389
Co -0.992767 10.8248 14.8201
Co -0.992767 12.0358 12.2513
Co -0.992767 13.2468 9.68238
Co -0.992767 14.4578 7.1135
Co -0.992767 15.6688 4.54463
Co -0.992767 16.8797 1.97575
Co -0.992767 18.0907 -0.593127
Co -0.992767 19.3017 -3.162
Co -0.992767 20.5127 -5.73088
Co -0.992767 5.98092 20.386
Co 1.01542 6.58641 19.1016
Co -0.992767 7.1919 17.8172
Co 1.01542 7.79739 16.5327
Co -0.992767 8.40288 15.2483
Co 1.01542 9.00837 13.9638
Co -0.992767 9.61386 12.6794
Co 1.01542 10.2194 11.395
Co -0.992767 10.8248 10.1105
Co 1.01542 11.4303 8.82609
Co -0.992767 12.0358 7.54165
Co 1.01542 12.6413 6.25721
Co -0.992767 13.2468 4.97277
Co 1.01542 13.8523 3.68833
Co -0.992767 14.4578 2.4039
Co 1.01542 15.0633 1.11946
Co -0.992767 15.6688 -0.164981
Co 1.01542 16.2743 -1.44942
Co -0.992767 16.8797 -2.73386
Co 1.01542 17.4852 -4.0183
Co -0.992767 18.0907 -5.30273
Co 1.01542 18.6962 -6.58717
Co -0.992767 19.3017 -7.87161
Co 1.01542 19.9072 -9.15605
Co -0.992767 20.5127 -10.4405
Co 1.01542 4.16445 19.5297
Co 1.01542 5.37543 16.9609
Co 1.01542 6.58641 14.392
Co 1.01542 7.79739 11.8231
Co 1.01542 9.00837 9.25423
Co 1.01542 10.2194 6.68536
Co 1.01542 11.4303 4.11648
Co 1.01542 12.6413 1.5476
Co 1.01542 13.8523 -1.02127
Co 1.01542 15.0633 -3.59015
Co 1.01542 16.2743 -6.15903
Co 1.01542 17.4852 -8.7279
Co 1.01542 18.6962 -11.2968
Co 1.01542 19.9072 -13.8657
Co -0.992767 13.2468 19.1016
Co -0.992767 14.4578 16.5327
Co -0.992767 15.6688 13.9638
Co -0.992767 16.8797 11.395
Co -0.992767 18.0907 8.82609
Co -0.992767 19.3017 6.25721
Co -0.992767 20.5127 3.68833
Co -0.992767 10.8248 19.5297
Co 1.01542 11.4303 18.2453
Co -0.992767 12.0358 16.9609
Co 1.01542 12.6413 15.6764
Co -0.992767 13.2468 14.392
Co 1.01542 13.8523 13.1075
Co -0.992767 14.4578 11.8231
Co 1.01542 15.0633 10.5387
Co -0.992767 15.6688 9.25423
Co 1.01542 16.2743 7.96979
Co -0.992767 16.8797 6.68536
Co 1.01542 17.4852 5.40092
Co -0.992767 18.0907 4.11648
Co 1.01542 18.6962 2.83204
Co -0.992767 19.3017 1.5476
Co 1.01542 19.9072 0.263165
Co -0.992767 20.5127 -1.02127
Co 1.01542 9.00837 18.6734
Co 1.01542 10.2194 16.1046
Co 1.01542 11.4303 13.5357
Co 1.01542 12.6413 10.9668
Co 1.01542 13.8523 8.39794
Co 1.01542 15.0633 5.82906
Co 1.01542 16.2743 3.26019
Co 1.01542 17.4852 0.691311
Co 1.01542 18.6962 -1.87757
Co 1.01542 19.9072 -4.44644
