177
Model 1
Fe -0.172352 16.9135 16.1409
Fe -0.172352 16.9135 -0.0299832
Fe -0.172352 16.9135 -16.2009
W -0.0327076 14.8112 19.9777
Fe -0.172352 14.7486 17.2007
Fe -0.172352 12.6562 18.225
W -0.324328 14.731 14.4236
Fe 0.178028 15.5666 8.0909
Fe 0.178028 13.4741 9.11523
W 0.330005 13.4918 11.8923
Fe 0.00283817 16.24 12.1159
W -0.0327076 14.8112 3.80681
W 0.038384 13.4116 6.33819
Fe -0.172352 14.7486 1.02977
Fe -0.172352 12.6562 2.05409
W -0.324328 14.731 -1.74727
Fe 0.178028 15.5666 -8.08001
Fe 0.178028 13.4741 -7.05569
W 0.330005 13.4918 -4.27865
Fe 0.00283817 16.24 -4.055
W -0.0327076 14.8112 -12.3641
W 0.038384 13.4116 -9.83272
Fe -0.172352 14.7486 -15.1411
Fe -0.172352 12.6562 -14.1168
W -0.324328 14.731 -17.9182
Fe -0.172352 10.4914 19.2848
W -0.324328 10.4737 16.5077
Fe 0.178028 11.3093 10.175
Fe 0.178028 9.21688 11.1993
W 0.330005 9.23454 13.9763
Fe 0.00283817 11.9828 14.2
W -0.0327076 10.5539 5.89088
W 0.038384 9.15436 8.42226
Fe -0.172352 10.4914 3.11384
Fe -0.172352 8.39895 4.13817
W -0.324328 10.4737 0.336808
Fe 0.178028 11.3093 -5.99593
Fe 0.178028 9.21688 -4.97161
W 0.330005 9.23454 -2.19458
Fe 0.00283817 11.9828 -1.97092
W -0.0327076 10.5539 -10.28
W 0.038384 9.15436 -7.74865
Fe -0.172352 10.4914 -13.0571
Fe -0.172352 8.39895 -12.0327
W -0.324328 10.4737 -15.8341
W 0.330005 9.23454 -18.3655
Fe 0.00283817 11.9828 -18.1418
W -0.324328 6.21648 18.5918
Fe 0.178028 7.05206 12.2591
Fe 0.178028 4.95962 13.2834
W 0.330005 4.97728 16.0604
Fe 0.00283817 7.72551 16.2841
W -0.0327076 6.29665 7.97496
W 0.038384 4.89711 10.5063
Fe -0.172352 6.23414 5.19792
Fe -0.172352 4.14169 6.22224
W -0.324328 6.21648 2.42088
Fe 0.178028 7.05206 -3.91186
Fe 0.178028 4.95962 -2.88754
W 0.330005 4.97728 -0.1105
Fe 0.00283817 7.72551 0.113154
W -0.0327076 6.29665 -8.19596
W 0.038384 4.89711 -5.66457
Fe -0.172352 6.23414 -10.973
Fe -0.172352 4.14169 -9.94867
W -0.324328 6.21648 -13.75
Fe 0.178028 4.95962 -19.0584
W 0.330005 4.97728 -16.2814
Fe 0.00283817 7.72551 -16.0578
Fe 0.178028 2.79481 14.3431
Fe 0.178028 0.702367 15.3675
W 0.330005 0.720023 18.1445
Fe 0.00283817 3.46825 18.3681
W -0.0327076 2.03939 10.059
W 0.038384 0.639852 12.5904
Fe -0.172352 1.97688 7.282
Fe -0.172352 -0.115562 8.30632
W -0.324328 1.95922 4.50496
Fe 0.178028 2.79481 -1.82778
Fe 0.178028 0.702367 -0.803461
W 0.330005 0.720023 1.97358
Fe 0.00283817 3.46825 2.19723
W -0.0327076 2.03939 -6.11188
W 0.038384 0.639852 -3.5805
Fe -0.172352 1.97688 -8.88892
Fe -0.172352 -0.115562 -7.86459
W -0.324328 1.95922 -11.666
Fe 0.178028 2.79481 -17.9987
Fe 0.178028 0.702367 -16.9744
W 0.330005 0.720023 -14.1973
Fe 0.00283817 3.46825 -13.9737
W 0.038384 0.639852 -19.7514
Fe 0.178028 -1.46245 16.4272
Fe 0.178028 -3.55489 17.4515
W -0.0327076 -2.21786 12.1431
W 0.038384 -3.6174 14.6745
Fe -0.172352 -2.28038 9.36607
Fe -0.172352 -4.37282 10.3904
W -0.324328 -2.29803 6.58903
Fe 0.178028 -1.46245 0.256292
Fe 0.178028 -3.55489 1.28061
W 0.330005 -3.53723 4.05765
Fe 0.00283817 -0.789005 4.2813
W -0.0327076 -2.21786 -4.02781
W 0.038384 -3.6174 -1.49642
Fe -0.172352 -2.28038 -6.80484
Fe -0.172352 -4.37282 -5.78052
W -0.324328 -2.29803 -9.58188
Fe 0.178028 -1.46245 -15.9146
Fe 0.178028 -3.55489 -14.8903
W 0.330005 -3.53723 -12.1133
Fe 0.00283817 -0.789005 -11.8896
W 0.038384 -3.6174 -17.6673
Fe 0.178028 -5.7197 18.5113
Fe 0.178028 -7.81215 19.5356
W -0.0327076 -6.47512 14.2272
W 0.038384 -7.87466 16.7586
Fe -0.172352 -6.53763 11.4501
Fe -0.172352 -8.63007 12.4745
W -0.324328 -6.55529 8.67311
Fe 0.178028 -5.7197 2.34037
Fe 0.178028 -7.81215 3.36469
W 0.330005 -7.79449 6.14173
Fe 0.00283817 -5.04626 6.36538
W -0.0327076 -6.47512 -1.94373
W 0.038384 -7.87466 0.587654
Fe -0.172352 -6.53763 -4.72077
Fe -0.172352 -8.63007 -3.69644
W -0.324328 -6.55529 -7.4978
Fe 0.178028 -5.7197 -13.8305
Fe 0.178028 -7.81215 -12.8062
W 0.330005 -7.79449 -10.0292
Fe 0.00283817 -5.04626 -9.80553
W -0.0327076 -6.47512 -18.1146
W 0.038384 -7.87466 -15.5833
Fe -0.172352 -8.63007 -19.8674
W -0.0327076 -10.7324 16.3113
W 0.038384 -12.1319 18.8426
Fe -0.172352 -10.7949 13.5342
Fe -0.172352 -12.8873 14.5585
W -0.324328 -10.8125 10.7572
Fe 0.178028 -9.97696 4.42444
Fe 0.178028 -12.0694 5.44877
W 0.330005 -12.0517 8.2258
Fe 0.00283817 -9.30352 8.44946
W -0.0327076 -10.7324 0.140346
W 0.038384 -12.1319 2.67173
Fe -0.172352 -10.7949 -2.63669
Fe -0.172352 -12.8873 -1.61237
W -0.324328 -10.8125 -5.41373
Fe 0.178028 -9.97696 -11.7465
Fe 0.178028 -12.0694 -10.7221
W 0.330005 -12.0517 -7.94511
Fe 0.00283817 -9.30352 -7.72146
W -0.0327076 -10.7324 -16.0306
W 0.038384 -12.1319 -13.4992
Fe -0.172352 -10.7949 -18.8076
Fe -0.172352 -12.8873 -17.7833
W -0.0327076 -14.9896 18.3953
Fe -0.172352 -15.0521 15.6183
W -0.324328 -15.0698 12.8413
Fe 0.178028 -14.2342 6.50852
Fe 0.178028 -16.3267 7.53284
W 0.330005 -16.309 10.3099
Fe 0.00283817 -13.5608 10.5335
W -0.0327076 -14.9896 2.22442
W 0.038384 -16.3892 4.7558
Fe -0.172352 -15.0521 -0.552615
W -0.324328 -15.0698 -3.32965
Fe 0.178028 -14.2342 -9.66239
Fe 0.178028 -16.3267 -8.63807
W 0.330005 -16.309 -5.86104
Fe 0.00283817 -13.5608 -5.63738
W -0.0327076 -14.9896 -13.9465
W 0.038384 -16.3892 -11.4151
Fe -0.172352 -15.0521 -16.7235
W -0.324328 -15.0698 -19.5006
