79
Model 1
W 0.140843 14.538 15.7101
Fe 0.00119833 14.4755 12.933
Fe 0.00119833 12.383 13.9574
W -0.150778 14.4578 10.156
W 0.140843 14.538 -0.460833
Fe 0.00119833 14.4755 -3.23787
Fe 0.00119833 12.383 -2.21355
W -0.150778 14.4578 -6.01491
W 0.140843 14.538 -16.6317
Fe 0.00119833 14.4755 -19.4088
Fe 0.00119833 12.383 -18.3845
W 0.140843 10.2807 17.7942
Fe 0.00119833 10.2182 15.0171
Fe 0.00119833 8.12579 16.0414
W -0.150778 10.2006 12.2401
W 0.140843 10.2807 1.62324
Fe 0.00119833 10.2182 -1.15379
Fe 0.00119833 8.12579 -0.129471
W -0.150778 10.2006 -3.93083
W 0.140843 10.2807 -14.5477
Fe 0.00119833 10.2182 -17.3247
Fe 0.00119833 8.12579 -16.3004
W 0.140843 6.02349 19.8782
Fe 0.00119833 5.96097 17.1012
Fe 0.00119833 3.86853 18.1255
W -0.150778 5.94332 14.3242
W 0.140843 6.02349 3.70732
Fe 0.00119833 5.96097 0.930281
Fe 0.00119833 3.86853 1.9546
W -0.150778 5.94332 -1.84676
W 0.140843 6.02349 -12.4636
Fe 0.00119833 5.96097 -15.2406
Fe 0.00119833 3.86853 -14.2163
W -0.150778 5.94332 -18.0177
Fe 0.00119833 1.70372 19.1853
W -0.150778 1.68606 16.4082
W 0.140843 1.76623 5.79139
Fe 0.00119833 1.70372 3.01436
Fe 0.00119833 -0.388724 4.03868
W -0.150778 1.68606 0.23732
W 0.140843 1.76623 -10.3795
Fe 0.00119833 1.70372 -13.1566
Fe 0.00119833 -0.388724 -12.1322
W -0.150778 1.68606 -15.9336
W -0.150778 -2.5712 18.4923
W 0.140843 -2.49102 7.87547
Fe 0.00119833 -2.55354 5.09843
Fe 0.00119833 -4.64598 6.12276
W -0.150778 -2.5712 2.3214
W 0.140843 -2.49102 -8.29544
Fe 0.00119833 -2.55354 -11.0725
Fe 0.00119833 -4.64598 -10.0482
W -0.150778 -2.5712 -13.8495
W 0.140843 -6.74828 9.95954
Fe 0.00119833 -6.8108 7.18251
Fe 0.00119833 -8.90324 8.20683
W -0.150778 -6.82845 4.40547
W 0.140843 -6.74828 -6.21137
Fe 0.00119833 -6.8108 -8.9884
Fe 0.00119833 -8.90324 -7.96408
W -0.150778 -6.82845 -11.7654
W 0.140843 -11.0055 12.0436
Fe 0.00119833 -11.0681 9.26658
Fe 0.00119833 -13.1605 10.2909
W -0.150778 -11.0857 6.48955
W 0.140843 -11.0055 -4.12729
Fe 0.00119833 -11.0681 -6.90433
Fe 0.00119833 -13.1605 -5.88001
W -0.150778 -11.0857 -9.68137
W 0.140843 -15.2628 14.1277
Fe 0.00119833 -15.3253 11.3507
Fe 0.00119833 -17.4177 12.375
W -0.150778 -15.343 8.57362
W 0.140843 -15.2628 -2.04322
Fe 0.00119833 -15.3253 -4.82025
Fe 0.00119833 -17.4177 -3.79593
W -0.150778 -15.343 -7.59729
W 0.140843 -15.2628 -18.2141
Fe 0.00119833 -17.4177 -19.9668
