56
Model 1
Ti -4.70004e-16 2.75073 0.848705
Ti 1.24249 1.96516 3.39482
Ti 1.24249 4.71589 2.54611
Ti 0 0 0
Ti 2.48498 1.17959 0.848705
Ti 2.48498 3.93032 2.8473e-16
Ti 4.96995 5.1099 0.848705
Ti 3.72746 0.394013 3.39482
Ti 3.72746 3.14475 2.54611
Ti 6.21244 4.32433 3.39482
Ti 4.96995 2.35917 -1.85273e-16
Ti 7.45493 3.53876 0.848705
Ti 6.21244 1.5736 2.54611
Ti 8.69741 2.75319 3.39482
Ti 7.45493 0.788027 -6.55277e-16
Ti 9.9399 1.96761 0.848705
Ti 9.9399 4.71834 -3.70547e-16
Ti 8.69741 0.00245389 2.54611
Ti 11.1824 1.18204 3.39482
Ti 11.1824 3.93277 2.54611
Ti 13.6674 5.11236 3.39482
Ti 12.4249 0.396467 0.848705
Ti 12.4249 3.1472 -3.70547e-16
Ti 14.9099 4.32679 0.848705
Ti 13.6674 2.36163 2.54611
Ti 16.1523 3.54121 3.39482
Ti 14.9099 1.57605 -1.31055e-15
Ti 16.1523 0.790481 2.54611
Ti 17.3948 2.75564 0.848705
Ti 18.6373 1.97007 3.39482
Ti 18.6373 4.7208 2.54611
Ti 17.3948 0.00490779 -3.19057e-15
Ti 19.8798 1.18449 0.848705
Ti 19.8798 3.93523 -2.90584e-15
Ti 22.3648 5.11481 0.848705
Ti 21.1223 0.398921 3.39482
Ti 21.1223 3.14965 2.54611
Ti 23.6073 4.32924 3.39482
Ti 22.3648 2.36408 -3.37584e-15
Ti 24.8498 3.54367 0.848705
Ti 23.6073 1.57851 2.54611
Ti 26.0922 2.75809 3.39482
Ti 24.8498 0.792934 -3.84585e-15
Ti 27.3347 1.97252 0.848705
Ti 27.3347 4.72325 -3.56112e-15
Ti 26.0922 0.00736168 2.54611
Ti 28.5772 1.18695 3.39482
Ti 28.5772 3.93768 2.54611
Ti 31.0622 5.11727 3.39482
Ti 29.8197 0.401375 0.848705
Ti 29.8197 3.15211 -3.56112e-15
Ti 32.3047 4.33169 0.848705
Ti 31.0622 2.36653 2.54611
Ti 33.5472 3.54612 3.39482
Ti 32.3047 1.58096 -4.50112e-15
Ti 33.5472 0.795388 2.54611
56
Model 2
Ti -4.70004e-16 2.75073 0.848705
Ti 1.24249 1.96516 3.39482
Ti 1.24249 4.71589 2.54611
Ti 0 0 0
Ti 2.48498 1.17959 0.848705
Ti 2.48498 3.93032 2.8473e-16
Ti 4.96995 5.1099 0.848705
Ti 3.72746 0.394013 3.39482
Ti 3.72746 3.14475 2.54611
Ti 6.21244 4.32433 3.39482
Ti 4.96995 2.35917 -1.85273e-16
Ti 7.45493 3.53876 0.848705
Ti 6.21244 1.5736 2.54611
Ti 8.69741 2.75319 3.39482
Ti 7.45493 0.788027 -6.55277e-16
Ti 9.9399 1.96761 0.848705
Ti 9.9399 4.71834 -3.70547e-16
Ti 8.69741 0.00245389 2.54611
Ti 11.1824 1.18204 3.39482
Ti 11.1824 3.93277 2.54611
Ti 13.6674 5.11236 3.39482
Ti 12.4249 0.396467 0.848705
Ti 12.4249 3.1472 -3.70547e-16
Ti 14.9099 4.32679 0.848705
Ti 13.6674 2.36163 2.54611
Ti 16.1523 3.54121 3.39482
Ti 14.9099 1.57605 -1.31055e-15
Ti 16.1523 0.790481 2.54611
Ti 17.3948 2.75564 0.848705
Ti 18.6373 1.97007 3.39482
Ti 18.6373 4.7208 2.54611
Ti 17.3948 0.00490779 -3.19057e-15
Ti 19.8798 1.18449 0.848705
Ti 19.8798 3.93523 -2.90584e-15
Ti 22.3648 5.11481 0.848705
Ti 21.1223 0.398921 3.39482
Ti 21.1223 3.14965 2.54611
Ti 23.6073 4.32924 3.39482
Ti 22.3648 2.36408 -3.37584e-15
Ti 24.8498 3.54367 0.848705
Ti 23.6073 1.57851 2.54611
Ti 26.0922 2.75809 3.39482
Ti 24.8498 0.792934 -3.84585e-15
Ti 27.3347 1.97252 0.848705
Ti 27.3347 4.72325 -3.56112e-15
Ti 26.0922 0.00736168 2.54611
Ti 28.5772 1.18695 3.39482
Ti 28.5772 3.93768 2.54611
Ti 31.0622 5.11727 3.39482
Ti 29.8197 0.401375 0.848705
Ti 29.8197 3.15211 -3.56112e-15
Ti 32.3047 4.33169 0.848705
Ti 31.0622 2.36653 2.54611
Ti 33.5472 3.54612 3.39482
Ti 32.3047 1.58096 -4.50112e-15
Ti 33.5472 0.795388 2.54611
