64
Model 1
Ti 8.84338 5.33217 4.404
Ti 8.84338 5.33217 1.468
Ti 7.1636 0.317919 2.936
Ti 7.1636 3.13779 2.936
Ti 10.5592 3.45571 2.936
Ti 7.1636 0.317919 -5.83685e-16
Ti 7.1636 3.13779 -4.41323e-16
Ti 10.5592 3.45571 5.55214e-16
Ti 9.41532 1.26133 4.404
Ti 12.275 1.57924 4.404
Ti 12.8469 4.39911 4.404
Ti 15.7066 4.71703 4.404
Ti 9.41532 1.26133 1.468
Ti 12.275 1.57924 1.468
Ti 12.8469 4.39911 1.468
Ti 15.7066 4.71703 1.468
Ti 11.1311 6.27557 2.936
Ti 13.9908 6.59349 2.936
Ti 14.5627 2.52265 2.936
Ti 17.4224 2.84057 2.936
Ti 11.1311 6.27557 6.97574e-16
Ti 13.9908 6.59349 8.39937e-16
Ti 14.5627 2.52265 6.97575e-16
Ti 17.4224 2.84057 8.39935e-16
Ti 16.2785 0.64619 4.404
Ti 19.1382 0.964109 4.404
Ti 19.7101 3.78398 4.404
Ti 16.2785 0.64619 1.468
Ti 19.1382 0.964109 1.468
Ti 19.7101 3.78398 1.468
Ti 17.9943 5.66044 2.936
Ti 21.39 5.97836 2.936
Ti 21.39 1.90752 2.936
Ti 17.9943 5.66044 9.82297e-16
Ti 21.39 5.97836 1.12466e-15
Ti 21.39 1.90752 9.82295e-16
Ti 5.48382 5.33217 4.404
Ti 5.48382 5.33217 1.468
Ti 3.76802 3.45571 2.936
Ti 3.76802 3.45571 -2.98959e-16
Ti 4.91188 1.26133 4.404
Ti 2.05222 1.57924 4.404
Ti 1.48029 4.39911 4.404
Ti 27.0734 4.71703 4.404
Ti 4.91188 1.26133 1.468
Ti 2.05222 1.57924 1.468
Ti 1.48029 4.39911 1.468
Ti 27.0734 4.71703 1.468
Ti 3.19608 6.27557 2.936
Ti 0.33642 6.59349 2.936
Ti 28.2173 2.52265 2.936
Ti 25.3576 2.84057 2.936
Ti 3.19608 6.27557 -1.56599e-16
Ti 0.33642 6.59349 -1.42363e-17
Ti 28.2173 2.52265 6.97574e-16
Ti 25.3576 2.84057 8.39937e-16
Ti 26.5015 0.64619 4.404
Ti 23.6418 0.964109 4.404
Ti 23.0699 3.78398 4.404
Ti 26.5015 0.64619 1.468
Ti 23.6418 0.964109 1.468
Ti 23.0699 3.78398 1.468
Ti 24.7857 5.66044 2.936
Ti 24.7857 5.66044 9.82298e-16
64
Model 2
Ti 8.84338 5.33217 4.404
Ti 8.84338 5.33217 1.468
Ti 7.1636 0.317919 2.936
Ti 7.1636 3.13779 2.936
Ti 10.5592 3.45571 2.936
Ti 7.1636 0.317919 -5.83685e-16
Ti 7.1636 3.13779 -4.41323e-16
Ti 10.5592 3.45571 5.55214e-16
Ti 9.41532 1.26133 4.404
Ti 12.275 1.57924 4.404
Ti 12.8469 4.39911 4.404
Ti 15.7066 4.71703 4.404
Ti 9.41532 1.26133 1.468
Ti 12.275 1.57924 1.468
Ti 12.8469 4.39911 1.468
Ti 15.7066 4.71703 1.468
Ti 11.1311 6.27557 2.936
Ti 13.9908 6.59349 2.936
Ti 14.5627 2.52265 2.936
Ti 17.4224 2.84057 2.936
Ti 11.1311 6.27557 6.97574e-16
Ti 13.9908 6.59349 8.39937e-16
Ti 14.5627 2.52265 6.97575e-16
Ti 17.4224 2.84057 8.39935e-16
Ti 16.2785 0.64619 4.404
Ti 19.1382 0.964109 4.404
Ti 19.7101 3.78398 4.404
Ti 16.2785 0.64619 1.468
Ti 19.1382 0.964109 1.468
Ti 19.7101 3.78398 1.468
Ti 17.9943 5.66044 2.936
Ti 21.39 5.97836 2.936
Ti 21.39 1.90752 2.936
Ti 17.9943 5.66044 9.82297e-16
Ti 21.39 5.97836 1.12466e-15
Ti 21.39 1.90752 9.82295e-16
Ti 5.48382 5.33217 4.404
Ti 5.48382 5.33217 1.468
Ti 3.76802 3.45571 2.936
Ti 3.76802 3.45571 -2.98959e-16
Ti 4.91188 1.26133 4.404
Ti 2.05222 1.57924 4.404
Ti 1.48029 4.39911 4.404
Ti 27.0734 4.71703 4.404
Ti 4.91188 1.26133 1.468
Ti 2.05222 1.57924 1.468
Ti 1.48029 4.39911 1.468
Ti 27.0734 4.71703 1.468
Ti 3.19608 6.27557 2.936
Ti 0.33642 6.59349 2.936
Ti 28.2173 2.52265 2.936
Ti 25.3576 2.84057 2.936
Ti 3.19608 6.27557 -1.56599e-16
Ti 0.33642 6.59349 -1.42363e-17
Ti 28.2173 2.52265 6.97574e-16
Ti 25.3576 2.84057 8.39937e-16
Ti 26.5015 0.64619 4.404
Ti 23.6418 0.964109 4.404
Ti 23.0699 3.78398 4.404
Ti 26.5015 0.64619 1.468
Ti 23.6418 0.964109 1.468
Ti 23.0699 3.78398 1.468
Ti 24.7857 5.66044 2.936
Ti 24.7857 5.66044 9.82298e-16
