64
Model 1
Ti 8.70838 5.33217 4.404
Ti 8.70838 5.33217 1.468
Ti 7.2536 0.317919 2.936
Ti 7.2536 3.13779 2.936
Ti 10.4242 3.45571 2.936
Ti 7.2536 0.317919 -5.83685e-16
Ti 7.2536 3.13779 -4.4132e-16
Ti 10.4242 3.45571 5.55214e-16
Ti 9.28032 1.26133 4.404
Ti 12.14 1.57924 4.404
Ti 12.7119 4.39911 4.404
Ti 15.5716 4.71703 4.404
Ti 9.28032 1.26133 1.468
Ti 12.14 1.57924 1.468
Ti 12.7119 4.39911 1.468
Ti 15.5716 4.71703 1.468
Ti 10.9961 6.27557 2.936
Ti 13.8558 6.59349 2.936
Ti 14.4277 2.52265 2.936
Ti 17.2874 2.84057 2.936
Ti 10.9961 6.27557 6.97574e-16
Ti 13.8558 6.59349 8.39937e-16
Ti 14.4277 2.52265 6.97577e-16
Ti 17.2874 2.84057 8.39939e-16
Ti 16.1435 0.64619 4.404
Ti 19.0032 0.964109 4.404
Ti 19.5751 3.78398 4.404
Ti 16.1435 0.64619 1.468
Ti 19.0032 0.964109 1.468
Ti 19.5751 3.78398 1.468
Ti 17.8593 5.66044 2.936
Ti 21.03 5.97836 2.936
Ti 21.03 1.90752 2.936
Ti 17.8593 5.66044 9.82298e-16
Ti 21.03 5.97836 1.12466e-15
Ti 21.03 1.90752 9.82294e-16
Ti 5.79882 5.33217 4.404
Ti 5.79882 5.33217 1.468
Ti 4.08302 3.45571 2.936
Ti 4.08302 3.45571 -2.9896e-16
Ti 5.22688 1.26133 4.404
Ti 2.36722 1.57924 4.404
Ti 1.79529 4.39911 4.404
Ti 26.4884 4.71703 4.404
Ti 5.22688 1.26133 1.468
Ti 2.36722 1.57924 1.468
Ti 1.79529 4.39911 1.468
Ti 26.4884 4.71703 1.468
Ti 3.51108 6.27557 2.936
Ti 0.65142 6.59349 2.936
Ti 0.0794866 2.52265 2.936
Ti 24.7726 2.84057 2.936
Ti 3.51108 6.27557 -1.56599e-16
Ti 0.65142 6.59349 -1.42364e-17
Ti 0.0794866 2.52265 -1.56598e-16
Ti 24.7726 2.84057 8.39938e-16
Ti 25.9165 0.64619 4.404
Ti 23.0568 0.964109 4.404
Ti 22.4849 3.78398 4.404
Ti 25.9165 0.64619 1.468
Ti 23.0568 0.964109 1.468
Ti 22.4849 3.78398 1.468
Ti 24.2007 5.66044 2.936
Ti 24.2007 5.66044 9.82297e-16
64
Model 2
Ti 8.70838 5.33217 4.404
Ti 8.70838 5.33217 1.468
Ti 7.2536 0.317919 2.936
Ti 7.2536 3.13779 2.936
Ti 10.4242 3.45571 2.936
Ti 7.2536 0.317919 -5.83685e-16
Ti 7.2536 3.13779 -4.4132e-16
Ti 10.4242 3.45571 5.55214e-16
Ti 9.28032 1.26133 4.404
Ti 12.14 1.57924 4.404
Ti 12.7119 4.39911 4.404
Ti 15.5716 4.71703 4.404
Ti 9.28032 1.26133 1.468
Ti 12.14 1.57924 1.468
Ti 12.7119 4.39911 1.468
Ti 15.5716 4.71703 1.468
Ti 10.9961 6.27557 2.936
Ti 13.8558 6.59349 2.936
Ti 14.4277 2.52265 2.936
Ti 17.2874 2.84057 2.936
Ti 10.9961 6.27557 6.97574e-16
Ti 13.8558 6.59349 8.39937e-16
Ti 14.4277 2.52265 6.97577e-16
Ti 17.2874 2.84057 8.39939e-16
Ti 16.1435 0.64619 4.404
Ti 19.0032 0.964109 4.404
Ti 19.5751 3.78398 4.404
Ti 16.1435 0.64619 1.468
Ti 19.0032 0.964109 1.468
Ti 19.5751 3.78398 1.468
Ti 17.8593 5.66044 2.936
Ti 21.03 5.97836 2.936
Ti 21.03 1.90752 2.936
Ti 17.8593 5.66044 9.82298e-16
Ti 21.03 5.97836 1.12466e-15
Ti 21.03 1.90752 9.82294e-16
Ti 5.79882 5.33217 4.404
Ti 5.79882 5.33217 1.468
Ti 4.08302 3.45571 2.936
Ti 4.08302 3.45571 -2.9896e-16
Ti 5.22688 1.26133 4.404
Ti 2.36722 1.57924 4.404
Ti 1.79529 4.39911 4.404
Ti 26.4884 4.71703 4.404
Ti 5.22688 1.26133 1.468
Ti 2.36722 1.57924 1.468
Ti 1.79529 4.39911 1.468
Ti 26.4884 4.71703 1.468
Ti 3.51108 6.27557 2.936
Ti 0.65142 6.59349 2.936
Ti 0.0794866 2.52265 2.936
Ti 24.7726 2.84057 2.936
Ti 3.51108 6.27557 -1.56599e-16
Ti 0.65142 6.59349 -1.42364e-17
Ti 0.0794866 2.52265 -1.56598e-16
Ti 24.7726 2.84057 8.39938e-16
Ti 25.9165 0.64619 4.404
Ti 23.0568 0.964109 4.404
Ti 22.4849 3.78398 4.404
Ti 25.9165 0.64619 1.468
Ti 23.0568 0.964109 1.468
Ti 22.4849 3.78398 1.468
Ti 24.2007 5.66044 2.936
Ti 24.2007 5.66044 9.82297e-16
