8
Model 1
Ti 0 0 0
Ti 1.7141 0 2.3916
Ti 0 2.9689 0
Ti 1.7141 2.9689 2.3916
Ti 2.57114 -1.48445 0
Ti 4.28524 -1.48445 2.3916
Ti 2.57114 1.48445 0
Ti 4.28524 1.48445 2.3916
8
Model 2
Ti 0 0 0
Ti 1.7141 0 2.3916
Ti 0 2.9689 0
Ti 1.7141 2.9689 2.3916
Ti 2.57114 -1.48445 0
Ti 4.28524 -1.48445 2.3916
Ti 2.57114 1.48445 0
Ti 4.28524 1.48445 2.3916
