100
Model 1
Co -6.98848 -0.920345 -7.0901
Co -6.98848 0.290635 -9.65898
Co -6.98848 -0.920345 2.32911
Co -6.98848 0.290635 -0.239762
Co -6.98848 1.50162 -2.80864
Co -4.98029 -1.52583 -1.09605
Co -6.98848 -0.920345 -2.38049
Co -4.98029 -0.314855 -3.66493
Co -6.98848 0.290635 -4.94937
Co -4.98029 0.896125 -6.23381
Co -6.98848 1.50162 -7.51825
Co -4.98029 -1.52583 -5.80566
Co -2.97211 -0.920345 -7.0901
Co -4.98029 -0.314855 -8.37454
Co -2.97211 0.290635 -9.65898
Co -6.98848 0.290635 9.17945
Co -6.98848 1.50162 6.61058
Co -4.98029 -1.52583 8.32316
Co -6.98848 -0.920345 7.03872
Co -4.98029 -0.314855 5.75428
Co -6.98848 0.290635 4.46985
Co -4.98029 0.896125 3.18541
Co -6.98848 1.50162 1.90097
Co -4.98029 -1.52583 3.61355
Co -2.97211 -0.920345 2.32911
Co -4.98029 -0.314855 1.04468
Co -2.97211 0.290635 -0.239762
Co -4.98029 0.896125 -1.5242
Co -2.97211 1.50162 -2.80864
Co -0.963928 -1.52583 -1.09605
Co -2.97211 -0.920345 -2.38049
Co -0.963928 -0.314855 -3.66493
Co -2.97211 0.290635 -4.94937
Co -0.963928 0.896125 -6.23381
Co -2.97211 1.50162 -7.51825
Co -0.963928 -1.52583 -5.80566
Co 1.04426 -0.920345 -7.0901
Co -0.963928 -0.314855 -8.37454
Co 1.04426 0.290635 -9.65898
Co -2.97211 0.290635 9.17945
Co -4.98029 0.896125 7.89501
Co -2.97211 1.50162 6.61058
Co -0.963928 -1.52583 8.32316
Co -2.97211 -0.920345 7.03872
Co -0.963928 -0.314855 5.75428
Co -2.97211 0.290635 4.46985
Co -0.963928 0.896125 3.18541
Co -2.97211 1.50162 1.90097
Co -0.963928 -1.52583 3.61355
Co 1.04426 -0.920345 2.32911
Co -0.963928 -0.314855 1.04468
Co 1.04426 0.290635 -0.239762
Co -0.963928 0.896125 -1.5242
Co 1.04426 1.50162 -2.80864
Co 3.05244 -1.52583 -1.09605
Co 1.04426 -0.920345 -2.38049
Co 3.05244 -0.314855 -3.66493
Co 1.04426 0.290635 -4.94937
Co 3.05244 0.896125 -6.23381
Co 1.04426 1.50162 -7.51825
Co 3.05244 -1.52583 -5.80566
Co 5.06062 -0.920345 -7.0901
Co 3.05244 -0.314855 -8.37454
Co 5.06062 0.290635 -9.65898
Co 1.04426 0.290635 9.17945
Co -0.963928 0.896125 7.89501
Co 1.04426 1.50162 6.61058
Co 3.05244 -1.52583 8.32316
Co 1.04426 -0.920345 7.03872
Co 3.05244 -0.314855 5.75428
Co 1.04426 0.290635 4.46985
Co 3.05244 0.896125 3.18541
Co 1.04426 1.50162 1.90097
Co 3.05244 -1.52583 3.61355
Co 5.06062 -0.920345 2.32911
Co 3.05244 -0.314855 1.04468
Co 5.06062 0.290635 -0.239762
Co 3.05244 0.896125 -1.5242
Co 5.06062 1.50162 -2.80864
Co 7.06881 -1.52583 -1.09605
Co 5.06062 -0.920345 -2.38049
Co 7.06881 -0.314855 -3.66493
Co 5.06062 0.290635 -4.94937
Co 7.06881 0.896125 -6.23381
Co 5.06062 1.50162 -7.51825
Co 7.06881 -1.52583 -5.80566
Co 7.06881 -0.314855 -8.37454
Co 5.06062 0.290635 9.17945
Co 3.05244 0.896125 7.89501
Co 5.06062 1.50162 6.61058
Co 7.06881 -1.52583 8.32316
Co 5.06062 -0.920345 7.03872
Co 7.06881 -0.314855 5.75428
Co 5.06062 0.290635 4.46985
Co 7.06881 0.896125 3.18541
Co 5.06062 1.50162 1.90097
Co 7.06881 -1.52583 3.61355
Co 7.06881 -0.314855 1.04468
Co 7.06881 0.896125 -1.5242
Co 7.06881 0.896125 7.89501
