52
Model 1
Ti 7.74058 2.74787 0.848128
Ti 9.137 1.96255 3.39251
Ti 9.137 4.71043 2.54438
Ti 7.74058 -7.6e-11 -4.32278e-16
Ti 10.3785 1.17723 0.848128
Ti 10.3785 3.92511 4.2091e-16
Ti 12.8614 5.10234 0.848128
Ti 11.6199 0.391912 3.39251
Ti 11.6199 3.13978 2.54438
Ti 14.1029 4.31702 3.39251
Ti 12.8614 2.35446 4.20905e-16
Ti 15.3443 3.5317 0.848128
Ti 14.1029 1.56914 2.54438
Ti 16.5858 2.74638 3.39251
Ti 15.3443 0.783823 4.20903e-16
Ti 17.8272 1.96106 0.848128
Ti 17.8272 4.70893 7.05301e-16
Ti 16.5858 -0.00149748 2.54438
Ti 19.0687 1.17573 3.39251
Ti 19.0687 3.92361 2.54438
Ti 21.5516 5.10084 3.39251
Ti 20.3102 0.390414 0.848128
Ti 20.3102 3.13829 7.05298e-16
Ti 22.7931 4.31552 0.848128
Ti 21.5516 2.35297 2.54438
Ti 24.1896 3.5302 3.39251
Ti 22.7931 1.56765 7.05296e-16
Ti 24.1896 0.782326 2.54438
Ti 6.34417 1.96255 3.39251
Ti 6.34417 4.71043 2.54438
Ti 5.10271 1.17723 0.848128
Ti 5.10271 3.92511 -1.47878e-16
Ti 2.61978 5.10234 0.848128
Ti 3.86124 0.391912 3.39251
Ti 3.86124 3.13978 2.54438
Ti 1.37832 4.31702 3.39251
Ti 2.61978 2.35446 -1.47884e-16
Ti 0.136851 3.5317 0.848128
Ti 1.37832 1.56914 2.54438
Ti 31.7934 2.74638 3.39251
Ti 0.136851 0.783823 -1.47884e-16
Ti 30.552 1.96106 0.848128
Ti 30.552 4.70893 7.05302e-16
Ti 31.7934 -0.00149748 2.54438
Ti 29.3105 1.17573 3.39251
Ti 29.3105 3.92361 2.54438
Ti 26.8276 5.10084 3.39251
Ti 28.0691 0.390414 0.848128
Ti 28.0691 3.13829 7.05298e-16
Ti 25.5861 4.31552 0.848128
Ti 26.8276 2.35297 2.54438
Ti 25.5861 1.56765 7.05296e-16
52
Model 2
Ti 7.74058 2.74787 0.848128
Ti 9.137 1.96255 3.39251
Ti 9.137 4.71043 2.54438
Ti 7.74058 -7.6e-11 -4.32278e-16
Ti 10.3785 1.17723 0.848128
Ti 10.3785 3.92511 4.2091e-16
Ti 12.8614 5.10234 0.848128
Ti 11.6199 0.391912 3.39251
Ti 11.6199 3.13978 2.54438
Ti 14.1029 4.31702 3.39251
Ti 12.8614 2.35446 4.20905e-16
Ti 15.3443 3.5317 0.848128
Ti 14.1029 1.56914 2.54438
Ti 16.5858 2.74638 3.39251
Ti 15.3443 0.783823 4.20903e-16
Ti 17.8272 1.96106 0.848128
Ti 17.8272 4.70893 7.05301e-16
Ti 16.5858 -0.00149748 2.54438
Ti 19.0687 1.17573 3.39251
Ti 19.0687 3.92361 2.54438
Ti 21.5516 5.10084 3.39251
Ti 20.3102 0.390414 0.848128
Ti 20.3102 3.13829 7.05298e-16
Ti 22.7931 4.31552 0.848128
Ti 21.5516 2.35297 2.54438
Ti 24.1896 3.5302 3.39251
Ti 22.7931 1.56765 7.05296e-16
Ti 24.1896 0.782326 2.54438
Ti 6.34417 1.96255 3.39251
Ti 6.34417 4.71043 2.54438
Ti 5.10271 1.17723 0.848128
Ti 5.10271 3.92511 -1.47878e-16
Ti 2.61978 5.10234 0.848128
Ti 3.86124 0.391912 3.39251
Ti 3.86124 3.13978 2.54438
Ti 1.37832 4.31702 3.39251
Ti 2.61978 2.35446 -1.47884e-16
Ti 0.136851 3.5317 0.848128
Ti 1.37832 1.56914 2.54438
Ti 31.7934 2.74638 3.39251
Ti 0.136851 0.783823 -1.47884e-16
Ti 30.552 1.96106 0.848128
Ti 30.552 4.70893 7.05302e-16
Ti 31.7934 -0.00149748 2.54438
Ti 29.3105 1.17573 3.39251
Ti 29.3105 3.92361 2.54438
Ti 26.8276 5.10084 3.39251
Ti 28.0691 0.390414 0.848128
Ti 28.0691 3.13829 7.05298e-16
Ti 25.5861 4.31552 0.848128
Ti 26.8276 2.35297 2.54438
Ti 25.5861 1.56765 7.05296e-16
