52
Model 1
Ti 7.73858 2.74787 0.848128
Ti 9.185 1.96255 3.39251
Ti 9.185 4.71043 2.54438
Ti 7.73858 -7.6e-11 -4.32278e-16
Ti 10.4265 1.17723 0.848128
Ti 10.4265 3.92511 4.20909e-16
Ti 12.9094 5.10234 0.848128
Ti 11.6679 0.391912 3.39251
Ti 11.6679 3.13978 2.54438
Ti 14.1509 4.31702 3.39251
Ti 12.9094 2.35446 4.20904e-16
Ti 15.3923 3.5317 0.848128
Ti 14.1509 1.56914 2.54438
Ti 16.6338 2.74638 3.39251
Ti 15.3923 0.783823 4.20903e-16
Ti 17.8752 1.96106 0.848128
Ti 17.8752 4.70893 7.05303e-16
Ti 16.6338 -0.00149748 2.54438
Ti 19.1167 1.17573 3.39251
Ti 19.1167 3.92361 2.54438
Ti 21.5996 5.10084 3.39251
Ti 20.3582 0.390414 0.848128
Ti 20.3582 3.13829 7.05302e-16
Ti 22.8411 4.31552 0.848128
Ti 21.5996 2.35297 2.54438
Ti 24.2876 3.5302 3.39251
Ti 22.8411 1.56765 7.05296e-16
Ti 24.2876 0.782326 2.54438
Ti 6.29217 1.96255 3.39251
Ti 6.29217 4.71043 2.54438
Ti 5.05071 1.17723 0.848128
Ti 5.05071 3.92511 -1.47879e-16
Ti 2.56778 5.10234 0.848128
Ti 3.80924 0.391912 3.39251
Ti 3.80924 3.13978 2.54438
Ti 1.32632 4.31702 3.39251
Ti 2.56778 2.35446 -1.47884e-16
Ti 0.0848513 3.5317 0.848128
Ti 1.32632 1.56914 2.54438
Ti 31.9414 2.74638 3.39251
Ti 0.0848513 0.783823 -1.47884e-16
Ti 30.7 1.96106 0.848128
Ti 30.7 4.70893 7.05304e-16
Ti 31.9414 -0.00149748 2.54438
Ti 29.4585 1.17573 3.39251
Ti 29.4585 3.92361 2.54438
Ti 26.9756 5.10084 3.39251
Ti 28.2171 0.390414 0.848128
Ti 28.2171 3.13829 7.05302e-16
Ti 25.7341 4.31552 0.848128
Ti 26.9756 2.35297 2.54438
Ti 25.7341 1.56765 7.05297e-16
52
Model 2
Ti 7.73858 2.74787 0.848128
Ti 9.185 1.96255 3.39251
Ti 9.185 4.71043 2.54438
Ti 7.73858 -7.6e-11 -4.32278e-16
Ti 10.4265 1.17723 0.848128
Ti 10.4265 3.92511 4.20909e-16
Ti 12.9094 5.10234 0.848128
Ti 11.6679 0.391912 3.39251
Ti 11.6679 3.13978 2.54438
Ti 14.1509 4.31702 3.39251
Ti 12.9094 2.35446 4.20904e-16
Ti 15.3923 3.5317 0.848128
Ti 14.1509 1.56914 2.54438
Ti 16.6338 2.74638 3.39251
Ti 15.3923 0.783823 4.20903e-16
Ti 17.8752 1.96106 0.848128
Ti 17.8752 4.70893 7.05303e-16
Ti 16.6338 -0.00149748 2.54438
Ti 19.1167 1.17573 3.39251
Ti 19.1167 3.92361 2.54438
Ti 21.5996 5.10084 3.39251
Ti 20.3582 0.390414 0.848128
Ti 20.3582 3.13829 7.05302e-16
Ti 22.8411 4.31552 0.848128
Ti 21.5996 2.35297 2.54438
Ti 24.2876 3.5302 3.39251
Ti 22.8411 1.56765 7.05296e-16
Ti 24.2876 0.782326 2.54438
Ti 6.29217 1.96255 3.39251
Ti 6.29217 4.71043 2.54438
Ti 5.05071 1.17723 0.848128
Ti 5.05071 3.92511 -1.47879e-16
Ti 2.56778 5.10234 0.848128
Ti 3.80924 0.391912 3.39251
Ti 3.80924 3.13978 2.54438
Ti 1.32632 4.31702 3.39251
Ti 2.56778 2.35446 -1.47884e-16
Ti 0.0848513 3.5317 0.848128
Ti 1.32632 1.56914 2.54438
Ti 31.9414 2.74638 3.39251
Ti 0.0848513 0.783823 -1.47884e-16
Ti 30.7 1.96106 0.848128
Ti 30.7 4.70893 7.05304e-16
Ti 31.9414 -0.00149748 2.54438
Ti 29.4585 1.17573 3.39251
Ti 29.4585 3.92361 2.54438
Ti 26.9756 5.10084 3.39251
Ti 28.2171 0.390414 0.848128
Ti 28.2171 3.13829 7.05302e-16
Ti 25.7341 4.31552 0.848128
Ti 26.9756 2.35297 2.54438
Ti 25.7341 1.56765 7.05297e-16
