52
Model 1
Ti 7.75353 2.74787 0.848128
Ti 8.945 1.96255 3.39251
Ti 8.945 4.71043 2.54438
Ti 7.75353 -7.6e-11 -4.32278e-16
Ti 10.1865 1.17723 0.848128
Ti 10.1865 3.92511 4.2091e-16
Ti 12.6694 5.10234 0.848128
Ti 11.4279 0.391912 3.39251
Ti 11.4279 3.13978 2.54438
Ti 13.9109 4.31702 3.39251
Ti 12.6694 2.35446 4.20903e-16
Ti 15.1523 3.5317 0.848128
Ti 13.9109 1.56914 2.54438
Ti 16.3938 2.74638 3.39251
Ti 15.1523 0.783823 4.20903e-16
Ti 17.6352 1.96106 0.848128
Ti 17.6352 4.70893 7.05301e-16
Ti 16.3938 -0.00149748 2.54438
Ti 18.8767 1.17573 3.39251
Ti 18.8767 3.92361 2.54438
Ti 21.3596 5.10084 3.39251
Ti 20.1182 0.390414 0.848128
Ti 20.1182 3.13829 7.05298e-16
Ti 22.6011 4.31552 0.848128
Ti 21.3596 2.35297 2.54438
Ti 23.8026 3.5302 3.39251
Ti 22.6011 1.56765 7.05297e-16
Ti 23.8026 0.782326 2.54438
Ti 6.56207 1.96255 3.39251
Ti 6.56207 4.71043 2.54438
Ti 5.32061 1.17723 0.848128
Ti 5.32061 3.92511 -1.47876e-16
Ti 2.83768 5.10234 0.848128
Ti 4.07914 0.391912 3.39251
Ti 4.07914 3.13978 2.54438
Ti 1.59622 4.31702 3.39251
Ti 2.83768 2.35446 -1.47882e-16
Ti 0.354751 3.5317 0.848128
Ti 1.59622 1.56914 2.54438
Ti 31.2113 2.74638 3.39251
Ti 0.354751 0.783823 -1.47884e-16
Ti 29.9699 1.96106 0.848128
Ti 29.9699 4.70893 7.05303e-16
Ti 31.2113 -0.00149748 2.54438
Ti 28.7284 1.17573 3.39251
Ti 28.7284 3.92361 2.54438
Ti 26.2455 5.10084 3.39251
Ti 27.487 0.390414 0.848128
Ti 27.487 3.13829 7.053e-16
Ti 25.004 4.31552 0.848128
Ti 26.2455 2.35297 2.54438
Ti 25.004 1.56765 7.05297e-16
52
Model 2
Ti 7.75353 2.74787 0.848128
Ti 8.945 1.96255 3.39251
Ti 8.945 4.71043 2.54438
Ti 7.75353 -7.6e-11 -4.32278e-16
Ti 10.1865 1.17723 0.848128
Ti 10.1865 3.92511 4.2091e-16
Ti 12.6694 5.10234 0.848128
Ti 11.4279 0.391912 3.39251
Ti 11.4279 3.13978 2.54438
Ti 13.9109 4.31702 3.39251
Ti 12.6694 2.35446 4.20903e-16
Ti 15.1523 3.5317 0.848128
Ti 13.9109 1.56914 2.54438
Ti 16.3938 2.74638 3.39251
Ti 15.1523 0.783823 4.20903e-16
Ti 17.6352 1.96106 0.848128
Ti 17.6352 4.70893 7.05301e-16
Ti 16.3938 -0.00149748 2.54438
Ti 18.8767 1.17573 3.39251
Ti 18.8767 3.92361 2.54438
Ti 21.3596 5.10084 3.39251
Ti 20.1182 0.390414 0.848128
Ti 20.1182 3.13829 7.05298e-16
Ti 22.6011 4.31552 0.848128
Ti 21.3596 2.35297 2.54438
Ti 23.8026 3.5302 3.39251
Ti 22.6011 1.56765 7.05297e-16
Ti 23.8026 0.782326 2.54438
Ti 6.56207 1.96255 3.39251
Ti 6.56207 4.71043 2.54438
Ti 5.32061 1.17723 0.848128
Ti 5.32061 3.92511 -1.47876e-16
Ti 2.83768 5.10234 0.848128
Ti 4.07914 0.391912 3.39251
Ti 4.07914 3.13978 2.54438
Ti 1.59622 4.31702 3.39251
Ti 2.83768 2.35446 -1.47882e-16
Ti 0.354751 3.5317 0.848128
Ti 1.59622 1.56914 2.54438
Ti 31.2113 2.74638 3.39251
Ti 0.354751 0.783823 -1.47884e-16
Ti 29.9699 1.96106 0.848128
Ti 29.9699 4.70893 7.05303e-16
Ti 31.2113 -0.00149748 2.54438
Ti 28.7284 1.17573 3.39251
Ti 28.7284 3.92361 2.54438
Ti 26.2455 5.10084 3.39251
Ti 27.487 0.390414 0.848128
Ti 27.487 3.13829 7.053e-16
Ti 25.004 4.31552 0.848128
Ti 26.2455 2.35297 2.54438
Ti 25.004 1.56765 7.05297e-16
