52
Model 1
Ti 7.74953 2.74787 0.848128
Ti 9.041 1.96255 3.39251
Ti 9.041 4.71043 2.54438
Ti 7.74953 -7.6e-11 -4.32278e-16
Ti 10.2825 1.17723 0.848128
Ti 10.2825 3.92511 4.2091e-16
Ti 12.7654 5.10234 0.848128
Ti 11.5239 0.391912 3.39251
Ti 11.5239 3.13978 2.54438
Ti 14.0069 4.31702 3.39251
Ti 12.7654 2.35446 4.20904e-16
Ti 15.2483 3.5317 0.848128
Ti 14.0069 1.56914 2.54438
Ti 16.4898 2.74638 3.39251
Ti 15.2483 0.783823 4.20904e-16
Ti 17.7312 1.96106 0.848128
Ti 17.7312 4.70893 7.05303e-16
Ti 16.4898 -0.00149748 2.54438
Ti 18.9727 1.17573 3.39251
Ti 18.9727 3.92361 2.54438
Ti 21.4556 5.10084 3.39251
Ti 20.2142 0.390414 0.848128
Ti 20.2142 3.13829 7.05301e-16
Ti 22.6971 4.31552 0.848128
Ti 21.4556 2.35297 2.54438
Ti 23.9986 3.5302 3.39251
Ti 22.6971 1.56765 7.05297e-16
Ti 23.9986 0.782326 2.54438
Ti 6.45807 1.96255 3.39251
Ti 6.45807 4.71043 2.54438
Ti 5.21661 1.17723 0.848128
Ti 5.21661 3.92511 -1.47879e-16
Ti 2.73368 5.10234 0.848128
Ti 3.97514 0.391912 3.39251
Ti 3.97514 3.13978 2.54438
Ti 1.49222 4.31702 3.39251
Ti 2.73368 2.35446 -1.47884e-16
Ti 0.250751 3.5317 0.848128
Ti 1.49222 1.56914 2.54438
Ti 31.5073 2.74638 3.39251
Ti 0.250751 0.783823 -1.47884e-16
Ti 30.2659 1.96106 0.848128
Ti 30.2659 4.70893 7.05302e-16
Ti 31.5073 -0.00149748 2.54438
Ti 29.0244 1.17573 3.39251
Ti 29.0244 3.92361 2.54438
Ti 26.5415 5.10084 3.39251
Ti 27.783 0.390414 0.848128
Ti 27.783 3.13829 7.05299e-16
Ti 25.3 4.31552 0.848128
Ti 26.5415 2.35297 2.54438
Ti 25.3 1.56765 7.05297e-16
52
Model 2
Ti 7.74953 2.74787 0.848128
Ti 9.041 1.96255 3.39251
Ti 9.041 4.71043 2.54438
Ti 7.74953 -7.6e-11 -4.32278e-16
Ti 10.2825 1.17723 0.848128
Ti 10.2825 3.92511 4.2091e-16
Ti 12.7654 5.10234 0.848128
Ti 11.5239 0.391912 3.39251
Ti 11.5239 3.13978 2.54438
Ti 14.0069 4.31702 3.39251
Ti 12.7654 2.35446 4.20904e-16
Ti 15.2483 3.5317 0.848128
Ti 14.0069 1.56914 2.54438
Ti 16.4898 2.74638 3.39251
Ti 15.2483 0.783823 4.20904e-16
Ti 17.7312 1.96106 0.848128
Ti 17.7312 4.70893 7.05303e-16
Ti 16.4898 -0.00149748 2.54438
Ti 18.9727 1.17573 3.39251
Ti 18.9727 3.92361 2.54438
Ti 21.4556 5.10084 3.39251
Ti 20.2142 0.390414 0.848128
Ti 20.2142 3.13829 7.05301e-16
Ti 22.6971 4.31552 0.848128
Ti 21.4556 2.35297 2.54438
Ti 23.9986 3.5302 3.39251
Ti 22.6971 1.56765 7.05297e-16
Ti 23.9986 0.782326 2.54438
Ti 6.45807 1.96255 3.39251
Ti 6.45807 4.71043 2.54438
Ti 5.21661 1.17723 0.848128
Ti 5.21661 3.92511 -1.47879e-16
Ti 2.73368 5.10234 0.848128
Ti 3.97514 0.391912 3.39251
Ti 3.97514 3.13978 2.54438
Ti 1.49222 4.31702 3.39251
Ti 2.73368 2.35446 -1.47884e-16
Ti 0.250751 3.5317 0.848128
Ti 1.49222 1.56914 2.54438
Ti 31.5073 2.74638 3.39251
Ti 0.250751 0.783823 -1.47884e-16
Ti 30.2659 1.96106 0.848128
Ti 30.2659 4.70893 7.05302e-16
Ti 31.5073 -0.00149748 2.54438
Ti 29.0244 1.17573 3.39251
Ti 29.0244 3.92361 2.54438
Ti 26.5415 5.10084 3.39251
Ti 27.783 0.390414 0.848128
Ti 27.783 3.13829 7.05299e-16
Ti 25.3 4.31552 0.848128
Ti 26.5415 2.35297 2.54438
Ti 25.3 1.56765 7.05297e-16
