52
Model 1
Ti 7.73458 2.74787 0.848128
Ti 9.281 1.96255 3.39251
Ti 9.281 4.71043 2.54438
Ti 7.73458 -7.6e-11 -4.32278e-16
Ti 10.5225 1.17723 0.848128
Ti 10.5225 3.92511 4.20911e-16
Ti 13.0054 5.10234 0.848128
Ti 11.7639 0.391912 3.39251
Ti 11.7639 3.13978 2.54438
Ti 14.2469 4.31702 3.39251
Ti 13.0054 2.35446 4.20903e-16
Ti 15.4883 3.5317 0.848128
Ti 14.2469 1.56914 2.54438
Ti 16.7298 2.74638 3.39251
Ti 15.4883 0.783823 4.20903e-16
Ti 17.9712 1.96106 0.848128
Ti 17.9712 4.70893 7.05301e-16
Ti 16.7298 -0.00149748 2.54438
Ti 19.2127 1.17573 3.39251
Ti 19.2127 3.92361 2.54438
Ti 21.6956 5.10084 3.39251
Ti 20.4542 0.390414 0.848128
Ti 20.4542 3.13829 7.05299e-16
Ti 22.9371 4.31552 0.848128
Ti 21.6956 2.35297 2.54438
Ti 24.4836 3.5302 3.39251
Ti 22.9371 1.56765 7.05297e-16
Ti 24.4836 0.782326 2.54438
Ti 6.18817 1.96255 3.39251
Ti 6.18817 4.71043 2.54438
Ti 4.94671 1.17723 0.848128
Ti 4.94671 3.92511 -1.47879e-16
Ti 2.46378 5.10234 0.848128
Ti 3.70524 0.391912 3.39251
Ti 3.70524 3.13978 2.54438
Ti 1.22232 4.31702 3.39251
Ti 2.46378 2.35446 -1.47883e-16
Ti 33.4789 3.5317 0.848128
Ti 1.22232 1.56914 2.54438
Ti 32.2374 2.74638 3.39251
Ti 33.4789 0.783823 4.20903e-16
Ti 30.996 1.96106 0.848128
Ti 30.996 4.70893 7.05304e-16
Ti 32.2374 -0.00149748 2.54438
Ti 29.7545 1.17573 3.39251
Ti 29.7545 3.92361 2.54438
Ti 27.2716 5.10084 3.39251
Ti 28.5131 0.390414 0.848128
Ti 28.5131 3.13829 7.053e-16
Ti 26.0301 4.31552 0.848128
Ti 27.2716 2.35297 2.54438
Ti 26.0301 1.56765 7.05298e-16
52
Model 2
Ti 7.73458 2.74787 0.848128
Ti 9.281 1.96255 3.39251
Ti 9.281 4.71043 2.54438
Ti 7.73458 -7.6e-11 -4.32278e-16
Ti 10.5225 1.17723 0.848128
Ti 10.5225 3.92511 4.20911e-16
Ti 13.0054 5.10234 0.848128
Ti 11.7639 0.391912 3.39251
Ti 11.7639 3.13978 2.54438
Ti 14.2469 4.31702 3.39251
Ti 13.0054 2.35446 4.20903e-16
Ti 15.4883 3.5317 0.848128
Ti 14.2469 1.56914 2.54438
Ti 16.7298 2.74638 3.39251
Ti 15.4883 0.783823 4.20903e-16
Ti 17.9712 1.96106 0.848128
Ti 17.9712 4.70893 7.05301e-16
Ti 16.7298 -0.00149748 2.54438
Ti 19.2127 1.17573 3.39251
Ti 19.2127 3.92361 2.54438
Ti 21.6956 5.10084 3.39251
Ti 20.4542 0.390414 0.848128
Ti 20.4542 3.13829 7.05299e-16
Ti 22.9371 4.31552 0.848128
Ti 21.6956 2.35297 2.54438
Ti 24.4836 3.5302 3.39251
Ti 22.9371 1.56765 7.05297e-16
Ti 24.4836 0.782326 2.54438
Ti 6.18817 1.96255 3.39251
Ti 6.18817 4.71043 2.54438
Ti 4.94671 1.17723 0.848128
Ti 4.94671 3.92511 -1.47879e-16
Ti 2.46378 5.10234 0.848128
Ti 3.70524 0.391912 3.39251
Ti 3.70524 3.13978 2.54438
Ti 1.22232 4.31702 3.39251
Ti 2.46378 2.35446 -1.47883e-16
Ti 33.4789 3.5317 0.848128
Ti 1.22232 1.56914 2.54438
Ti 32.2374 2.74638 3.39251
Ti 33.4789 0.783823 4.20903e-16
Ti 30.996 1.96106 0.848128
Ti 30.996 4.70893 7.05304e-16
Ti 32.2374 -0.00149748 2.54438
Ti 29.7545 1.17573 3.39251
Ti 29.7545 3.92361 2.54438
Ti 27.2716 5.10084 3.39251
Ti 28.5131 0.390414 0.848128
Ti 28.5131 3.13829 7.053e-16
Ti 26.0301 4.31552 0.848128
Ti 27.2716 2.35297 2.54438
Ti 26.0301 1.56765 7.05298e-16
