64
Model 1
Ti 5.38403 6.67813 3.39875
Ti 4.83273 9.34668 2.54906
Ti 5.38403 1.78353 0.849686
Ti 4.83273 4.45209 4.28755e-17
Ti 6.78763 6.23562 0.849686
Ti 6.08583 8.90417 6.14555e-16
Ti 6.78763 1.34103 3.39875
Ti 6.08583 4.00958 2.54906
Ti 8.19123 5.79311 3.39875
Ti 7.48943 8.46166 2.54906
Ti 8.19123 0.898517 0.849686
Ti 7.48943 3.56707 3.28716e-16
Ti 9.59483 5.3506 0.849686
Ti 8.89303 8.01915 6.14554e-16
Ti 9.59483 0.456008 3.39875
Ti 8.89303 3.12456 2.54906
Ti 10.9984 4.90809 3.39875
Ti 10.2966 7.57665 2.54906
Ti 12.402 9.36018 3.39875
Ti 10.9984 0.0134995 0.849686
Ti 10.2966 2.68205 3.28715e-16
Ti 12.402 4.46559 0.849686
Ti 11.7002 7.13414 6.14556e-16
Ti 13.8056 8.91767 0.849686
Ti 11.7002 2.23954 2.54906
Ti 13.8056 4.02308 3.39875
Ti 13.1038 6.69163 2.54906
Ti 15.2092 8.47516 3.39875
Ti 13.1038 1.79703 3.28715e-16
Ti 15.2092 3.58057 0.849686
Ti 14.5074 6.24912 6.14555e-16
Ti 14.5074 1.35453 2.54906
Ti 15.7615 5.80661 2.54906
Ti 15.7615 0.912016 3.28714e-16
Ti 4.28143 6.67813 1.69937
Ti 4.28143 1.78353 -0.849686
Ti 2.87784 6.23562 -0.849686
Ti 3.57963 8.90417 3.28718e-16
Ti 2.87784 1.34103 1.69937
Ti 3.57963 4.00958 2.54906
Ti 1.47424 5.79311 1.69937
Ti 2.17604 8.46166 2.54906
Ti 1.47424 0.898517 -0.849686
Ti 2.17604 3.56707 4.28768e-17
Ti 0.0706402 5.3506 -0.849686
Ti 0.772439 8.01915 3.28716e-16
Ti 0.0706402 0.456008 1.69937
Ti 0.772439 3.12456 2.54906
Ti 20.5246 4.90809 1.69937
Ti 21.2264 7.57665 2.54906
Ti 19.121 9.36018 1.69937
Ti 20.5246 0.0134995 -0.849686
Ti 21.2264 2.68205 3.28714e-16
Ti 19.121 4.46559 -0.849686
Ti 19.8228 7.13414 6.14553e-16
Ti 17.7174 8.91767 -0.849686
Ti 19.8228 2.23954 2.54906
Ti 17.7174 4.02308 1.69937
Ti 18.4192 6.69163 2.54906
Ti 16.3138 8.47516 1.69937
Ti 18.4192 1.79703 3.28715e-16
Ti 16.3138 3.58057 -0.849686
Ti 17.0156 6.24912 6.14555e-16
Ti 17.0156 1.35453 2.54906
64
Model 2
Ti 5.38403 6.67813 3.39875
Ti 4.83273 9.34668 2.54906
Ti 5.38403 1.78353 0.849686
Ti 4.83273 4.45209 4.28755e-17
Ti 6.78763 6.23562 0.849686
Ti 6.08583 8.90417 6.14555e-16
Ti 6.78763 1.34103 3.39875
Ti 6.08583 4.00958 2.54906
Ti 8.19123 5.79311 3.39875
Ti 7.48943 8.46166 2.54906
Ti 8.19123 0.898517 0.849686
Ti 7.48943 3.56707 3.28716e-16
Ti 9.59483 5.3506 0.849686
Ti 8.89303 8.01915 6.14554e-16
Ti 9.59483 0.456008 3.39875
Ti 8.89303 3.12456 2.54906
Ti 10.9984 4.90809 3.39875
Ti 10.2966 7.57665 2.54906
Ti 12.402 9.36018 3.39875
Ti 10.9984 0.0134995 0.849686
Ti 10.2966 2.68205 3.28715e-16
Ti 12.402 4.46559 0.849686
Ti 11.7002 7.13414 6.14556e-16
Ti 13.8056 8.91767 0.849686
Ti 11.7002 2.23954 2.54906
Ti 13.8056 4.02308 3.39875
Ti 13.1038 6.69163 2.54906
Ti 15.2092 8.47516 3.39875
Ti 13.1038 1.79703 3.28715e-16
Ti 15.2092 3.58057 0.849686
Ti 14.5074 6.24912 6.14555e-16
Ti 14.5074 1.35453 2.54906
Ti 15.7615 5.80661 2.54906
Ti 15.7615 0.912016 3.28714e-16
Ti 4.28143 6.67813 1.69937
Ti 4.28143 1.78353 -0.849686
Ti 2.87784 6.23562 -0.849686
Ti 3.57963 8.90417 3.28718e-16
Ti 2.87784 1.34103 1.69937
Ti 3.57963 4.00958 2.54906
Ti 1.47424 5.79311 1.69937
Ti 2.17604 8.46166 2.54906
Ti 1.47424 0.898517 -0.849686
Ti 2.17604 3.56707 4.28768e-17
Ti 0.0706402 5.3506 -0.849686
Ti 0.772439 8.01915 3.28716e-16
Ti 0.0706402 0.456008 1.69937
Ti 0.772439 3.12456 2.54906
Ti 20.5246 4.90809 1.69937
Ti 21.2264 7.57665 2.54906
Ti 19.121 9.36018 1.69937
Ti 20.5246 0.0134995 -0.849686
Ti 21.2264 2.68205 3.28714e-16
Ti 19.121 4.46559 -0.849686
Ti 19.8228 7.13414 6.14553e-16
Ti 17.7174 8.91767 -0.849686
Ti 19.8228 2.23954 2.54906
Ti 17.7174 4.02308 1.69937
Ti 18.4192 6.69163 2.54906
Ti 16.3138 8.47516 1.69937
Ti 18.4192 1.79703 3.28715e-16
Ti 16.3138 3.58057 -0.849686
Ti 17.0156 6.24912 6.14555e-16
Ti 17.0156 1.35453 2.54906
