64
Model 1
Ti 5.44403 6.67813 3.39875
Ti 4.79273 9.34668 2.54906
Ti 5.44403 1.78353 0.849686
Ti 4.79273 4.45209 4.2876e-17
Ti 6.84763 6.23562 0.849686
Ti 6.14583 8.90417 6.14556e-16
Ti 6.84763 1.34103 3.39875
Ti 6.14583 4.00958 2.54906
Ti 8.25123 5.79311 3.39875
Ti 7.54943 8.46166 2.54906
Ti 8.25123 0.898517 0.849686
Ti 7.54943 3.56707 3.28716e-16
Ti 9.65483 5.3506 0.849686
Ti 8.95303 8.01915 6.14556e-16
Ti 9.65483 0.456008 3.39875
Ti 8.95303 3.12456 2.54906
Ti 11.0584 4.90809 3.39875
Ti 10.3566 7.57665 2.54906
Ti 12.462 9.36018 3.39875
Ti 11.0584 0.0134995 0.849686
Ti 10.3566 2.68205 3.28716e-16
Ti 12.462 4.46559 0.849686
Ti 11.7602 7.13414 6.14556e-16
Ti 13.8656 8.91767 0.849686
Ti 11.7602 2.23954 2.54906
Ti 13.8656 4.02308 3.39875
Ti 13.1638 6.69163 2.54906
Ti 15.2692 8.47516 3.39875
Ti 13.1638 1.79703 3.28714e-16
Ti 15.2692 3.58057 0.849686
Ti 14.5674 6.24912 6.14556e-16
Ti 14.5674 1.35453 2.54906
Ti 15.9215 5.80661 2.54906
Ti 15.9215 0.912016 3.28715e-16
Ti 4.14143 6.67813 1.69937
Ti 4.14143 1.78353 -0.849686
Ti 2.73784 6.23562 -0.849686
Ti 3.43963 8.90417 3.28715e-16
Ti 2.73784 1.34103 1.69937
Ti 3.43963 4.00958 2.54906
Ti 1.33424 5.79311 1.69937
Ti 2.03604 8.46166 2.54906
Ti 1.33424 0.898517 -0.849686
Ti 2.03604 3.56707 4.28765e-17
Ti 22.1882 5.3506 -0.849686
Ti 0.632439 8.01915 3.28712e-16
Ti 22.1882 0.456008 1.69937
Ti 0.632439 3.12456 2.54906
Ti 20.7846 4.90809 1.69937
Ti 21.4864 7.57665 2.54906
Ti 19.381 9.36018 1.69937
Ti 20.7846 0.0134995 -0.849686
Ti 21.4864 2.68205 3.28714e-16
Ti 19.381 4.46559 -0.849686
Ti 20.0828 7.13414 6.14555e-16
Ti 17.9774 8.91767 -0.849686
Ti 20.0828 2.23954 2.54906
Ti 17.9774 4.02308 1.69937
Ti 18.6792 6.69163 2.54906
Ti 16.5738 8.47516 1.69937
Ti 18.6792 1.79703 3.28715e-16
Ti 16.5738 3.58057 -0.849686
Ti 17.2756 6.24912 6.14556e-16
Ti 17.2756 1.35453 2.54906
64
Model 2
Ti 5.44403 6.67813 3.39875
Ti 4.79273 9.34668 2.54906
Ti 5.44403 1.78353 0.849686
Ti 4.79273 4.45209 4.2876e-17
Ti 6.84763 6.23562 0.849686
Ti 6.14583 8.90417 6.14556e-16
Ti 6.84763 1.34103 3.39875
Ti 6.14583 4.00958 2.54906
Ti 8.25123 5.79311 3.39875
Ti 7.54943 8.46166 2.54906
Ti 8.25123 0.898517 0.849686
Ti 7.54943 3.56707 3.28716e-16
Ti 9.65483 5.3506 0.849686
Ti 8.95303 8.01915 6.14556e-16
Ti 9.65483 0.456008 3.39875
Ti 8.95303 3.12456 2.54906
Ti 11.0584 4.90809 3.39875
Ti 10.3566 7.57665 2.54906
Ti 12.462 9.36018 3.39875
Ti 11.0584 0.0134995 0.849686
Ti 10.3566 2.68205 3.28716e-16
Ti 12.462 4.46559 0.849686
Ti 11.7602 7.13414 6.14556e-16
Ti 13.8656 8.91767 0.849686
Ti 11.7602 2.23954 2.54906
Ti 13.8656 4.02308 3.39875
Ti 13.1638 6.69163 2.54906
Ti 15.2692 8.47516 3.39875
Ti 13.1638 1.79703 3.28714e-16
Ti 15.2692 3.58057 0.849686
Ti 14.5674 6.24912 6.14556e-16
Ti 14.5674 1.35453 2.54906
Ti 15.9215 5.80661 2.54906
Ti 15.9215 0.912016 3.28715e-16
Ti 4.14143 6.67813 1.69937
Ti 4.14143 1.78353 -0.849686
Ti 2.73784 6.23562 -0.849686
Ti 3.43963 8.90417 3.28715e-16
Ti 2.73784 1.34103 1.69937
Ti 3.43963 4.00958 2.54906
Ti 1.33424 5.79311 1.69937
Ti 2.03604 8.46166 2.54906
Ti 1.33424 0.898517 -0.849686
Ti 2.03604 3.56707 4.28765e-17
Ti 22.1882 5.3506 -0.849686
Ti 0.632439 8.01915 3.28712e-16
Ti 22.1882 0.456008 1.69937
Ti 0.632439 3.12456 2.54906
Ti 20.7846 4.90809 1.69937
Ti 21.4864 7.57665 2.54906
Ti 19.381 9.36018 1.69937
Ti 20.7846 0.0134995 -0.849686
Ti 21.4864 2.68205 3.28714e-16
Ti 19.381 4.46559 -0.849686
Ti 20.0828 7.13414 6.14555e-16
Ti 17.9774 8.91767 -0.849686
Ti 20.0828 2.23954 2.54906
Ti 17.9774 4.02308 1.69937
Ti 18.6792 6.69163 2.54906
Ti 16.5738 8.47516 1.69937
Ti 18.6792 1.79703 3.28715e-16
Ti 16.5738 3.58057 -0.849686
Ti 17.2756 6.24912 6.14556e-16
Ti 17.2756 1.35453 2.54906
