64
Model 1
Ti 5.50403 6.67813 3.39875
Ti 4.75273 9.34668 2.54906
Ti 5.50403 1.78353 0.849686
Ti 4.75273 4.45209 4.28772e-17
Ti 6.90763 6.23562 0.849686
Ti 6.20583 8.90417 6.14553e-16
Ti 6.90763 1.34103 3.39875
Ti 6.20583 4.00958 2.54906
Ti 8.31123 5.79311 3.39875
Ti 7.60943 8.46166 2.54906
Ti 8.31123 0.898517 0.849686
Ti 7.60943 3.56707 3.28715e-16
Ti 9.71483 5.3506 0.849686
Ti 9.01303 8.01915 6.1455e-16
Ti 9.71483 0.456008 3.39875
Ti 9.01303 3.12456 2.54906
Ti 11.1184 4.90809 3.39875
Ti 10.4166 7.57665 2.54906
Ti 12.522 9.36018 3.39875
Ti 11.1184 0.0134995 0.849686
Ti 10.4166 2.68205 3.28713e-16
Ti 12.522 4.46559 0.849686
Ti 11.8202 7.13414 6.14554e-16
Ti 13.9256 8.91767 0.849686
Ti 11.8202 2.23954 2.54906
Ti 13.9256 4.02308 3.39875
Ti 13.2238 6.69163 2.54906
Ti 15.3292 8.47516 3.39875
Ti 13.2238 1.79703 3.28715e-16
Ti 15.3292 3.58057 0.849686
Ti 14.6274 6.24912 6.14554e-16
Ti 14.6274 1.35453 2.54906
Ti 16.0815 5.80661 2.54906
Ti 16.0815 0.912016 3.28714e-16
Ti 4.00143 6.67813 1.69937
Ti 4.00143 1.78353 -0.849686
Ti 2.59784 6.23562 -0.849686
Ti 3.29963 8.90417 3.28717e-16
Ti 2.59784 1.34103 1.69937
Ti 3.29963 4.00958 2.54906
Ti 1.19424 5.79311 1.69937
Ti 1.89604 8.46166 2.54906
Ti 1.19424 0.898517 -0.849686
Ti 1.89604 3.56707 4.28764e-17
Ti 22.4482 5.3506 -0.849686
Ti 0.492439 8.01915 3.2871e-16
Ti 22.4482 0.456008 1.69937
Ti 0.492439 3.12456 2.54906
Ti 21.0446 4.90809 1.69937
Ti 21.7464 7.57665 2.54906
Ti 19.641 9.36018 1.69937
Ti 21.0446 0.0134995 -0.849686
Ti 21.7464 2.68205 3.28714e-16
Ti 19.641 4.46559 -0.849686
Ti 20.3428 7.13414 6.14552e-16
Ti 18.2374 8.91767 -0.849686
Ti 20.3428 2.23954 2.54906
Ti 18.2374 4.02308 1.69937
Ti 18.9392 6.69163 2.54906
Ti 16.8338 8.47516 1.69937
Ti 18.9392 1.79703 3.28715e-16
Ti 16.8338 3.58057 -0.849686
Ti 17.5356 6.24912 6.14556e-16
Ti 17.5356 1.35453 2.54906
64
Model 2
Ti 5.50403 6.67813 3.39875
Ti 4.75273 9.34668 2.54906
Ti 5.50403 1.78353 0.849686
Ti 4.75273 4.45209 4.28772e-17
Ti 6.90763 6.23562 0.849686
Ti 6.20583 8.90417 6.14553e-16
Ti 6.90763 1.34103 3.39875
Ti 6.20583 4.00958 2.54906
Ti 8.31123 5.79311 3.39875
Ti 7.60943 8.46166 2.54906
Ti 8.31123 0.898517 0.849686
Ti 7.60943 3.56707 3.28715e-16
Ti 9.71483 5.3506 0.849686
Ti 9.01303 8.01915 6.1455e-16
Ti 9.71483 0.456008 3.39875
Ti 9.01303 3.12456 2.54906
Ti 11.1184 4.90809 3.39875
Ti 10.4166 7.57665 2.54906
Ti 12.522 9.36018 3.39875
Ti 11.1184 0.0134995 0.849686
Ti 10.4166 2.68205 3.28713e-16
Ti 12.522 4.46559 0.849686
Ti 11.8202 7.13414 6.14554e-16
Ti 13.9256 8.91767 0.849686
Ti 11.8202 2.23954 2.54906
Ti 13.9256 4.02308 3.39875
Ti 13.2238 6.69163 2.54906
Ti 15.3292 8.47516 3.39875
Ti 13.2238 1.79703 3.28715e-16
Ti 15.3292 3.58057 0.849686
Ti 14.6274 6.24912 6.14554e-16
Ti 14.6274 1.35453 2.54906
Ti 16.0815 5.80661 2.54906
Ti 16.0815 0.912016 3.28714e-16
Ti 4.00143 6.67813 1.69937
Ti 4.00143 1.78353 -0.849686
Ti 2.59784 6.23562 -0.849686
Ti 3.29963 8.90417 3.28717e-16
Ti 2.59784 1.34103 1.69937
Ti 3.29963 4.00958 2.54906
Ti 1.19424 5.79311 1.69937
Ti 1.89604 8.46166 2.54906
Ti 1.19424 0.898517 -0.849686
Ti 1.89604 3.56707 4.28764e-17
Ti 22.4482 5.3506 -0.849686
Ti 0.492439 8.01915 3.2871e-16
Ti 22.4482 0.456008 1.69937
Ti 0.492439 3.12456 2.54906
Ti 21.0446 4.90809 1.69937
Ti 21.7464 7.57665 2.54906
Ti 19.641 9.36018 1.69937
Ti 21.0446 0.0134995 -0.849686
Ti 21.7464 2.68205 3.28714e-16
Ti 19.641 4.46559 -0.849686
Ti 20.3428 7.13414 6.14552e-16
Ti 18.2374 8.91767 -0.849686
Ti 20.3428 2.23954 2.54906
Ti 18.2374 4.02308 1.69937
Ti 18.9392 6.69163 2.54906
Ti 16.8338 8.47516 1.69937
Ti 18.9392 1.79703 3.28715e-16
Ti 16.8338 3.58057 -0.849686
Ti 17.5356 6.24912 6.14556e-16
Ti 17.5356 1.35453 2.54906
