1056
Model 1
Co -7.02864 12.4125 -11.774
Co -7.02864 7.56863 -12.6303
Co -7.02864 8.77961 -10.0614
Co -7.02864 9.99059 -7.49256
Co -7.02864 11.2016 -4.92368
Co -7.02864 12.4125 -2.3548
Co -5.02046 9.3851 -13.4866
Co -7.02864 9.99059 -12.2022
Co -5.02046 10.5961 -10.9177
Co -7.02864 11.2016 -9.63329
Co -5.02046 11.8071 -8.34885
Co -7.02864 12.4125 -7.06441
Co -5.02046 13.018 -5.77997
Co -5.02046 11.8071 -13.0585
Co -3.01227 12.4125 -11.774
Co -5.02046 13.018 -10.4896
Co -7.02864 2.72471 -13.4866
Co -7.02864 3.93569 -10.9177
Co -7.02864 5.14667 -8.34885
Co -7.02864 6.35765 -5.77997
Co -7.02864 7.56863 -3.2111
Co -7.02864 8.77961 -0.642219
Co -7.02864 9.99059 1.92666
Co -7.02864 11.2016 4.49553
Co -7.02864 12.4125 7.06441
Co -7.02864 5.14667 -13.0585
Co -5.02046 5.75216 -11.774
Co -7.02864 6.35765 -10.4896
Co -5.02046 6.96314 -9.20514
Co -7.02864 7.56863 -7.9207
Co -5.02046 8.17412 -6.63626
Co -7.02864 8.77961 -5.35183
Co -5.02046 9.3851 -4.06739
Co -7.02864 9.99059 -2.78295
Co -5.02046 10.5961 -1.49851
Co -7.02864 11.2016 -0.214073
Co -5.02046 11.8071 1.07037
Co -7.02864 12.4125 2.3548
Co -5.02046 13.018 3.63924
Co -5.02046 6.96314 -13.9147
Co -3.01227 7.56863 -12.6303
Co -5.02046 8.17412 -11.3459
Co -3.01227 8.77961 -10.0614
Co -5.02046 9.3851 -8.777
Co -3.01227 9.99059 -7.49256
Co -5.02046 10.5961 -6.20812
Co -3.01227 11.2016 -4.92368
Co -5.02046 11.8071 -3.63924
Co -3.01227 12.4125 -2.3548
Co -5.02046 13.018 -1.07037
Co -1.00409 9.3851 -13.4866
Co -3.01227 9.99059 -12.2022
Co -1.00409 10.5961 -10.9177
Co -3.01227 11.2016 -9.63329
Co -1.00409 11.8071 -8.34885
Co -3.01227 12.4125 -7.06441
Co -1.00409 13.018 -5.77997
Co -1.00409 11.8071 -13.0585
Co 1.00409 12.4125 -11.774
Co -1.00409 13.018 -10.4896
Co -7.02864 -0.908235 -11.774
Co -7.02864 0.302745 -9.20514
Co -7.02864 1.51373 -6.63626
Co -7.02864 2.72471 -4.06739
Co -7.02864 3.93569 -1.49851
Co -7.02864 5.14667 1.07037
Co -7.02864 6.35765 3.63924
Co -7.02864 7.56863 6.20812
Co -7.02864 8.77961 8.777
Co -7.02864 9.99059 11.3459
Co -7.02864 11.2016 13.9147
Co -7.02864 0.302745 -13.9147
Co -5.02046 0.908235 -12.6303
Co -7.02864 1.51373 -11.3459
Co -5.02046 2.11922 -10.0614
Co -7.02864 2.72471 -8.777
Co -5.02046 3.3302 -7.49256
Co -7.02864 3.93569 -6.20812
Co -5.02046 4.54118 -4.92368
Co -7.02864 5.14667 -3.63924
Co -5.02046 5.75216 -2.3548
Co -7.02864 6.35765 -1.07037
Co -5.02046 6.96314 0.214073
Co -7.02864 7.56863 1.49851
Co -5.02046 8.17412 2.78295
Co -7.02864 8.77961 4.06739
Co -5.02046 9.3851 5.35183
Co -7.02864 9.99059 6.63626
Co -5.02046 10.5961 7.9207
Co -7.02864 11.2016 9.20514
Co -5.02046 11.8071 10.4896
Co -7.02864 12.4125 11.774
Co -5.02046 13.018 13.0585
Co -3.01227 2.72471 -13.4866
Co -5.02046 3.3302 -12.2022
Co -3.01227 3.93569 -10.9177
Co -5.02046 4.54118 -9.63329
Co -3.01227 5.14667 -8.34885
Co -5.02046 5.75216 -7.06441
Co -3.01227 6.35765 -5.77997
Co -5.02046 6.96314 -4.49553
Co -3.01227 7.56863 -3.2111
Co -5.02046 8.17412 -1.92666
Co -3.01227 8.77961 -0.642219
Co -5.02046 9.3851 0.642219
Co -3.01227 9.99059 1.92666
Co -5.02046 10.5961 3.2111
Co -3.01227 11.2016 4.49553
Co -5.02046 11.8071 5.77997
Co -3.01227 12.4125 7.06441
Co -5.02046 13.018 8.34885
Co -3.01227 5.14667 -13.0585
Co -1.00409 5.75216 -11.774
Co -3.01227 6.35765 -10.4896
Co -1.00409 6.96314 -9.20514
Co -3.01227 7.56863 -7.9207
Co -1.00409 8.17412 -6.63626
Co -3.01227 8.77961 -5.35183
Co -1.00409 9.3851 -4.06739
Co -3.01227 9.99059 -2.78295
Co -1.00409 10.5961 -1.49851
Co -3.01227 11.2016 -0.214073
Co -1.00409 11.8071 1.07037
Co -3.01227 12.4125 2.3548
Co -1.00409 13.018 3.63924
Co -1.00409 6.96314 -13.9147
Co 1.00409 7.56863 -12.6303
Co -1.00409 8.17412 -11.3459
Co 1.00409 8.77961 -10.0614
Co -1.00409 9.3851 -8.777
Co 1.00409 9.99059 -7.49256
Co -1.00409 10.5961 -6.20812
Co 1.00409 11.2016 -4.92368
Co -1.00409 11.8071 -3.63924
Co 1.00409 12.4125 -2.3548
Co -1.00409 13.018 -1.07037
Co 3.01227 9.3851 -13.4866
Co 1.00409 9.99059 -12.2022
Co 3.01227 10.5961 -10.9177
Co 1.00409 11.2016 -9.63329
Co 3.01227 11.8071 -8.34885
Co 1.00409 12.4125 -7.06441
Co 3.01227 13.018 -5.77997
Co 3.01227 11.8071 -13.0585
Co 5.02046 12.4125 -11.774
Co 3.01227 13.018 -10.4896
Co -7.02864 -5.75216 -12.6303
Co -7.02864 -4.54118 -10.0614
Co -7.02864 -3.3302 -7.49256
Co -7.02864 -2.11922 -4.92368
Co -7.02864 -0.908235 -2.3548
Co -7.02864 0.302745 0.214073
Co -7.02864 1.51373 2.78295
Co -7.02864 2.72471 5.35183
Co -7.02864 3.93569 7.9207
Co -7.02864 5.14667 10.4896
Co -7.02864 6.35765 13.0585
Co -5.02046 -3.93569 -13.4866
Co -7.02864 -3.3302 -12.2022
Co -5.02046 -2.72471 -10.9177
Co -7.02864 -2.11922 -9.63329
Co -5.02046 -1.51373 -8.34885
Co -7.02864 -0.908235 -7.06441
Co -5.02046 -0.302745 -5.77997
Co -7.02864 0.302745 -4.49553
Co -5.02046 0.908235 -3.2111
Co -7.02864 1.51373 -1.92666
Co -5.02046 2.11922 -0.642219
Co -7.02864 2.72471 0.642219
Co -5.02046 3.3302 1.92666
Co -7.02864 3.93569 3.2111
Co -5.02046 4.54118 4.49553
Co -7.02864 5.14667 5.77997
Co -5.02046 5.75216 7.06441
Co -7.02864 6.35765 8.34885
Co -5.02046 6.96314 9.63329
Co -7.02864 7.56863 10.9177
Co -5.02046 8.17412 12.2022
Co -7.02864 8.77961 13.4866
Co -5.02046 -1.51373 -13.0585
Co -3.01227 -0.908235 -11.774
Co -5.02046 -0.302745 -10.4896
Co -3.01227 0.302745 -9.20514
Co -5.02046 0.908235 -7.9207
Co -3.01227 1.51373 -6.63626
Co -5.02046 2.11922 -5.35183
Co -3.01227 2.72471 -4.06739
Co -5.02046 3.3302 -2.78295
Co -3.01227 3.93569 -1.49851
Co -5.02046 4.54118 -0.214073
Co -3.01227 5.14667 1.07037
Co -5.02046 5.75216 2.3548
Co -3.01227 6.35765 3.63924
Co -5.02046 6.96314 4.92368
Co -3.01227 7.56863 6.20812
Co -5.02046 8.17412 7.49256
Co -3.01227 8.77961 8.777
Co -5.02046 9.3851 10.0614
Co -3.01227 9.99059 11.3459
Co -5.02046 10.5961 12.6303
Co -3.01227 11.2016 13.9147
Co -3.01227 0.302745 -13.9147
Co -1.00409 0.908235 -12.6303
Co -3.01227 1.51373 -11.3459
Co -1.00409 2.11922 -10.0614
Co -3.01227 2.72471 -8.777
Co -1.00409 3.3302 -7.49256
Co -3.01227 3.93569 -6.20812
Co -1.00409 4.54118 -4.92368
Co -3.01227 5.14667 -3.63924
Co -1.00409 5.75216 -2.3548
Co -3.01227 6.35765 -1.07037
Co -1.00409 6.96314 0.214073
Co -3.01227 7.56863 1.49851
Co -1.00409 8.17412 2.78295
Co -3.01227 8.77961 4.06739
Co -1.00409 9.3851 5.35183
Co -3.01227 9.99059 6.63626
Co -1.00409 10.5961 7.9207
Co -3.01227 11.2016 9.20514
Co -1.00409 11.8071 10.4896
Co -3.01227 12.4125 11.774
Co -1.00409 13.018 13.0585
Co 1.00409 2.72471 -13.4866
Co -1.00409 3.3302 -12.2022
Co 1.00409 3.93569 -10.9177
Co -1.00409 4.54118 -9.63329
Co 1.00409 5.14667 -8.34885
Co -1.00409 5.75216 -7.06441
Co 1.00409 6.35765 -5.77997
Co -1.00409 6.96314 -4.49553
Co 1.00409 7.56863 -3.2111
Co -1.00409 8.17412 -1.92666
Co 1.00409 8.77961 -0.642219
Co -1.00409 9.3851 0.642219
Co 1.00409 9.99059 1.92666
Co -1.00409 10.5961 3.2111
Co 1.00409 11.2016 4.49553
Co -1.00409 11.8071 5.77997
Co 1.00409 12.4125 7.06441
Co -1.00409 13.018 8.34885
Co 1.00409 5.14667 -13.0585
Co 3.01227 5.75216 -11.774
Co 1.00409 6.35765 -10.4896
Co 3.01227 6.96314 -9.20514
Co 1.00409 7.56863 -7.9207
Co 3.01227 8.17412 -6.63626
Co 1.00409 8.77961 -5.35183
Co 3.01227 9.3851 -4.06739
Co 1.00409 9.99059 -2.78295
Co 3.01227 10.5961 -1.49851
Co 1.00409 11.2016 -0.214073
Co 3.01227 11.8071 1.07037
Co 1.00409 12.4125 2.3548
Co 3.01227 13.018 3.63924
Co 3.01227 6.96314 -13.9147
Co 5.02046 7.56863 -12.6303
Co 3.01227 8.17412 -11.3459
Co 5.02046 8.77961 -10.0614
Co 3.01227 9.3851 -8.777
Co 5.02046 9.99059 -7.49256
Co 3.01227 10.5961 -6.20812
Co 5.02046 11.2016 -4.92368
Co 3.01227 11.8071 -3.63924
Co 5.02046 12.4125 -2.3548
Co 3.01227 13.018 -1.07037
Co 7.02864 9.3851 -13.4866
Co 5.02046 9.99059 -12.2022
Co 7.02864 10.5961 -10.9177
Co 5.02046 11.2016 -9.63329
Co 7.02864 11.8071 -8.34885
Co 5.02046 12.4125 -7.06441
Co 7.02864 13.018 -5.77997
Co 7.02864 11.8071 -13.0585
Co 7.02864 13.018 -10.4896
Co -7.02864 -10.5961 -13.4866
Co -7.02864 -9.3851 -10.9177
Co -7.02864 -8.17412 -8.34885
Co -7.02864 -6.96314 -5.77997
Co -7.02864 -5.75216 -3.2111
Co -7.02864 -4.54118 -0.642219
Co -7.02864 -3.3302 1.92666
Co -7.02864 -2.11922 4.49553
Co -7.02864 -0.908235 7.06441
Co -7.02864 0.302745 9.63329
Co -7.02864 1.51373 12.2022
Co -7.02864 -8.17412 -13.0585
Co -5.02046 -7.56863 -11.774
Co -7.02864 -6.96314 -10.4896
Co -5.02046 -6.35765 -9.20514
Co -7.02864 -5.75216 -7.9207
Co -5.02046 -5.14667 -6.63626
Co -7.02864 -4.54118 -5.35183
Co -5.02046 -3.93569 -4.06739
Co -7.02864 -3.3302 -2.78295
Co -5.02046 -2.72471 -1.49851
Co -7.02864 -2.11922 -0.214073
Co -5.02046 -1.51373 1.07037
Co -7.02864 -0.908235 2.3548
Co -5.02046 -0.302745 3.63924
Co -7.02864 0.302745 4.92368
Co -5.02046 0.908235 6.20812
Co -7.02864 1.51373 7.49256
Co -5.02046 2.11922 8.777
Co -7.02864 2.72471 10.0614
Co -5.02046 3.3302 11.3459
Co -7.02864 3.93569 12.6303
Co -5.02046 4.54118 13.9147
Co -5.02046 -6.35765 -13.9147
Co -3.01227 -5.75216 -12.6303
Co -5.02046 -5.14667 -11.3459
Co -3.01227 -4.54118 -10.0614
Co -5.02046 -3.93569 -8.777
Co -3.01227 -3.3302 -7.49256
Co -5.02046 -2.72471 -6.20812
Co -3.01227 -2.11922 -4.92368
Co -5.02046 -1.51373 -3.63924
Co -3.01227 -0.908235 -2.3548
Co -5.02046 -0.302745 -1.07037
Co -3.01227 0.302745 0.214073
Co -5.02046 0.908235 1.49851
Co -3.01227 1.51373 2.78295
Co -5.02046 2.11922 4.06739
Co -3.01227 2.72471 5.35183
Co -5.02046 3.3302 6.63626
Co -3.01227 3.93569 7.9207
Co -5.02046 4.54118 9.20514
Co -3.01227 5.14667 10.4896
Co -5.02046 5.75216 11.774
Co -3.01227 6.35765 13.0585
Co -1.00409 -3.93569 -13.4866
Co -3.01227 -3.3302 -12.2022
Co -1.00409 -2.72471 -10.9177
Co -3.01227 -2.11922 -9.63329
Co -1.00409 -1.51373 -8.34885
Co -3.01227 -0.908235 -7.06441
Co -1.00409 -0.302745 -5.77997
Co -3.01227 0.302745 -4.49553
Co -1.00409 0.908235 -3.2111
Co -3.01227 1.51373 -1.92666
Co -1.00409 2.11922 -0.642219
Co -3.01227 2.72471 0.642219
Co -1.00409 3.3302 1.92666
Co -3.01227 3.93569 3.2111
Co -1.00409 4.54118 4.49553
Co -3.01227 5.14667 5.77997
Co -1.00409 5.75216 7.06441
Co -3.01227 6.35765 8.34885
Co -1.00409 6.96314 9.63329
Co -3.01227 7.56863 10.9177
Co -1.00409 8.17412 12.2022
Co -3.01227 8.77961 13.4866
Co -1.00409 -1.51373 -13.0585
Co 1.00409 -0.908235 -11.774
Co -1.00409 -0.302745 -10.4896
Co 1.00409 0.302745 -9.20514
Co -1.00409 0.908235 -7.9207
Co 1.00409 1.51373 -6.63626
Co -1.00409 2.11922 -5.35183
Co 1.00409 2.72471 -4.06739
Co -1.00409 3.3302 -2.78295
Co 1.00409 3.93569 -1.49851
Co -1.00409 4.54118 -0.214073
Co 1.00409 5.14667 1.07037
Co -1.00409 5.75216 2.3548
Co 1.00409 6.35765 3.63924
Co -1.00409 6.96314 4.92368
Co 1.00409 7.56863 6.20812
Co -1.00409 8.17412 7.49256
Co 1.00409 8.77961 8.777
Co -1.00409 9.3851 10.0614
Co 1.00409 9.99059 11.3459
Co -1.00409 10.5961 12.6303
Co 1.00409 11.2016 13.9147
Co 1.00409 0.302745 -13.9147
Co 3.01227 0.908235 -12.6303
Co 1.00409 1.51373 -11.3459
Co 3.01227 2.11922 -10.0614
Co 1.00409 2.72471 -8.777
Co 3.01227 3.3302 -7.49256
Co 1.00409 3.93569 -6.20812
Co 3.01227 4.54118 -4.92368
Co 1.00409 5.14667 -3.63924
Co 3.01227 5.75216 -2.3548
Co 1.00409 6.35765 -1.07037
Co 3.01227 6.96314 0.214073
Co 1.00409 7.56863 1.49851
Co 3.01227 8.17412 2.78295
Co 1.00409 8.77961 4.06739
Co 3.01227 9.3851 5.35183
Co 1.00409 9.99059 6.63626
Co 3.01227 10.5961 7.9207
Co 1.00409 11.2016 9.20514
Co 3.01227 11.8071 10.4896
Co 1.00409 12.4125 11.774
Co 3.01227 13.018 13.0585
Co 5.02046 2.72471 -13.4866
Co 3.01227 3.3302 -12.2022
Co 5.02046 3.93569 -10.9177
Co 3.01227 4.54118 -9.63329
Co 5.02046 5.14667 -8.34885
Co 3.01227 5.75216 -7.06441
Co 5.02046 6.35765 -5.77997
Co 3.01227 6.96314 -4.49553
Co 5.02046 7.56863 -3.2111
Co 3.01227 8.17412 -1.92666
Co 5.02046 8.77961 -0.642219
Co 3.01227 9.3851 0.642219
Co 5.02046 9.99059 1.92666
Co 3.01227 10.5961 3.2111
Co 5.02046 11.2016 4.49553
Co 3.01227 11.8071 5.77997
Co 5.02046 12.4125 7.06441
Co 3.01227 13.018 8.34885
Co 5.02046 5.14667 -13.0585
Co 7.02864 5.75216 -11.774
Co 5.02046 6.35765 -10.4896
Co 7.02864 6.96314 -9.20514
Co 5.02046 7.56863 -7.9207
Co 7.02864 8.17412 -6.63626
Co 5.02046 8.77961 -5.35183
Co 7.02864 9.3851 -4.06739
Co 5.02046 9.99059 -2.78295
Co 7.02864 10.5961 -1.49851
Co 5.02046 11.2016 -0.214073
Co 7.02864 11.8071 1.07037
Co 5.02046 12.4125 2.3548
Co 7.02864 13.018 3.63924
Co 7.02864 6.96314 -13.9147
Co 7.02864 8.17412 -11.3459
Co 7.02864 9.3851 -8.777
Co 7.02864 10.5961 -6.20812
Co 7.02864 11.8071 -3.63924
Co 7.02864 13.018 -1.07037
Co -7.02864 -13.018 -9.20514
Co -7.02864 -11.8071 -6.63626
Co -7.02864 -10.5961 -4.06739
Co -7.02864 -9.3851 -1.49851
Co -7.02864 -8.17412 1.07037
Co -7.02864 -6.96314 3.63924
Co -7.02864 -5.75216 6.20812
Co -7.02864 -4.54118 8.777
Co -7.02864 -3.3302 11.3459
Co -7.02864 -2.11922 13.9147
Co -7.02864 -13.018 -13.9147
Co -5.02046 -12.4125 -12.6303
Co -7.02864 -11.8071 -11.3459
Co -5.02046 -11.2016 -10.0614
Co -7.02864 -10.5961 -8.777
Co -5.02046 -9.99059 -7.49256
Co -7.02864 -9.3851 -6.20812
Co -5.02046 -8.77961 -4.92368
Co -7.02864 -8.17412 -3.63924
Co -5.02046 -7.56863 -2.3548
Co -7.02864 -6.96314 -1.07037
Co -5.02046 -6.35765 0.214073
Co -7.02864 -5.75216 1.49851
Co -5.02046 -5.14667 2.78295
Co -7.02864 -4.54118 4.06739
Co -5.02046 -3.93569 5.35183
Co -7.02864 -3.3302 6.63626
Co -5.02046 -2.72471 7.9207
Co -7.02864 -2.11922 9.20514
Co -5.02046 -1.51373 10.4896
Co -7.02864 -0.908235 11.774
Co -5.02046 -0.302745 13.0585
Co -3.01227 -10.5961 -13.4866
Co -5.02046 -9.99059 -12.2022
Co -3.01227 -9.3851 -10.9177
Co -5.02046 -8.77961 -9.63329
Co -3.01227 -8.17412 -8.34885
Co -5.02046 -7.56863 -7.06441
Co -3.01227 -6.96314 -5.77997
Co -5.02046 -6.35765 -4.49553
Co -3.01227 -5.75216 -3.2111
Co -5.02046 -5.14667 -1.92666
Co -3.01227 -4.54118 -0.642219
Co -5.02046 -3.93569 0.642219
Co -3.01227 -3.3302 1.92666
Co -5.02046 -2.72471 3.2111
Co -3.01227 -2.11922 4.49553
Co -5.02046 -1.51373 5.77997
Co -3.01227 -0.908235 7.06441
Co -5.02046 -0.302745 8.34885
Co -3.01227 0.302745 9.63329
Co -5.02046 0.908235 10.9177
Co -3.01227 1.51373 12.2022
Co -5.02046 2.11922 13.4866
Co -3.01227 -8.17412 -13.0585
Co -1.00409 -7.56863 -11.774
Co -3.01227 -6.96314 -10.4896
Co -1.00409 -6.35765 -9.20514
Co -3.01227 -5.75216 -7.9207
Co -1.00409 -5.14667 -6.63626
Co -3.01227 -4.54118 -5.35183
Co -1.00409 -3.93569 -4.06739
Co -3.01227 -3.3302 -2.78295
Co -1.00409 -2.72471 -1.49851
Co -3.01227 -2.11922 -0.214073
Co -1.00409 -1.51373 1.07037
Co -3.01227 -0.908235 2.3548
Co -1.00409 -0.302745 3.63924
Co -3.01227 0.302745 4.92368
Co -1.00409 0.908235 6.20812
Co -3.01227 1.51373 7.49256
Co -1.00409 2.11922 8.777
Co -3.01227 2.72471 10.0614
Co -1.00409 3.3302 11.3459
Co -3.01227 3.93569 12.6303
Co -1.00409 4.54118 13.9147
Co -1.00409 -6.35765 -13.9147
Co 1.00409 -5.75216 -12.6303
Co -1.00409 -5.14667 -11.3459
Co 1.00409 -4.54118 -10.0614
Co -1.00409 -3.93569 -8.777
Co 1.00409 -3.3302 -7.49256
Co -1.00409 -2.72471 -6.20812
Co 1.00409 -2.11922 -4.92368
Co -1.00409 -1.51373 -3.63924
Co 1.00409 -0.908235 -2.3548
Co -1.00409 -0.302745 -1.07037
Co 1.00409 0.302745 0.214073
Co -1.00409 0.908235 1.49851
Co 1.00409 1.51373 2.78295
Co -1.00409 2.11922 4.06739
Co 1.00409 2.72471 5.35183
Co -1.00409 3.3302 6.63626
Co 1.00409 3.93569 7.9207
Co -1.00409 4.54118 9.20514
Co 1.00409 5.14667 10.4896
Co -1.00409 5.75216 11.774
Co 1.00409 6.35765 13.0585
Co 3.01227 -3.93569 -13.4866
Co 1.00409 -3.3302 -12.2022
Co 3.01227 -2.72471 -10.9177
Co 1.00409 -2.11922 -9.63329
Co 3.01227 -1.51373 -8.34885
Co 1.00409 -0.908235 -7.06441
Co 3.01227 -0.302745 -5.77997
Co 1.00409 0.302745 -4.49553
Co 3.01227 0.908235 -3.2111
Co 1.00409 1.51373 -1.92666
Co 3.01227 2.11922 -0.642219
Co 1.00409 2.72471 0.642219
Co 3.01227 3.3302 1.92666
Co 1.00409 3.93569 3.2111
Co 3.01227 4.54118 4.49553
Co 1.00409 5.14667 5.77997
Co 3.01227 5.75216 7.06441
Co 1.00409 6.35765 8.34885
Co 3.01227 6.96314 9.63329
Co 1.00409 7.56863 10.9177
Co 3.01227 8.17412 12.2022
Co 1.00409 8.77961 13.4866
Co 3.01227 -1.51373 -13.0585
Co 5.02046 -0.908235 -11.774
Co 3.01227 -0.302745 -10.4896
Co 5.02046 0.302745 -9.20514
Co 3.01227 0.908235 -7.9207
Co 5.02046 1.51373 -6.63626
Co 3.01227 2.11922 -5.35183
Co 5.02046 2.72471 -4.06739
Co 3.01227 3.3302 -2.78295
Co 5.02046 3.93569 -1.49851
Co 3.01227 4.54118 -0.214073
Co 5.02046 5.14667 1.07037
Co 3.01227 5.75216 2.3548
Co 5.02046 6.35765 3.63924
Co 3.01227 6.96314 4.92368
Co 5.02046 7.56863 6.20812
Co 3.01227 8.17412 7.49256
Co 5.02046 8.77961 8.777
Co 3.01227 9.3851 10.0614
Co 5.02046 9.99059 11.3459
Co 3.01227 10.5961 12.6303
Co 5.02046 11.2016 13.9147
Co 5.02046 0.302745 -13.9147
Co 7.02864 0.908235 -12.6303
Co 5.02046 1.51373 -11.3459
Co 7.02864 2.11922 -10.0614
Co 5.02046 2.72471 -8.777
Co 7.02864 3.3302 -7.49256
Co 5.02046 3.93569 -6.20812
Co 7.02864 4.54118 -4.92368
Co 5.02046 5.14667 -3.63924
Co 7.02864 5.75216 -2.3548
Co 5.02046 6.35765 -1.07037
Co 7.02864 6.96314 0.214073
Co 5.02046 7.56863 1.49851
Co 7.02864 8.17412 2.78295
Co 5.02046 8.77961 4.06739
Co 7.02864 9.3851 5.35183
Co 5.02046 9.99059 6.63626
Co 7.02864 10.5961 7.9207
Co 5.02046 11.2016 9.20514
Co 7.02864 11.8071 10.4896
Co 5.02046 12.4125 11.774
Co 7.02864 13.018 13.0585
Co 7.02864 3.3302 -12.2022
Co 7.02864 4.54118 -9.63329
Co 7.02864 5.75216 -7.06441
Co 7.02864 6.96314 -4.49553
Co 7.02864 8.17412 -1.92666
Co 7.02864 9.3851 0.642219
Co 7.02864 10.5961 3.2111
Co 7.02864 11.8071 5.77997
Co 7.02864 13.018 8.34885
Co -7.02864 -13.018 0.214073
Co -7.02864 -11.8071 2.78295
Co -7.02864 -10.5961 5.35183
Co -7.02864 -9.3851 7.9207
Co -7.02864 -8.17412 10.4896
Co -7.02864 -6.96314 13.0585
Co -7.02864 -13.018 -4.49553
Co -5.02046 -12.4125 -3.2111
Co -7.02864 -11.8071 -1.92666
Co -5.02046 -11.2016 -0.642219
Co -7.02864 -10.5961 0.642219
Co -5.02046 -9.99059 1.92666
Co -7.02864 -9.3851 3.2111
Co -5.02046 -8.77961 4.49553
Co -7.02864 -8.17412 5.77997
Co -5.02046 -7.56863 7.06441
Co -7.02864 -6.96314 8.34885
Co -5.02046 -6.35765 9.63329
Co -7.02864 -5.75216 10.9177
Co -5.02046 -5.14667 12.2022
Co -7.02864 -4.54118 13.4866
Co -3.01227 -13.018 -9.20514
Co -5.02046 -12.4125 -7.9207
Co -3.01227 -11.8071 -6.63626
Co -5.02046 -11.2016 -5.35183
Co -3.01227 -10.5961 -4.06739
Co -5.02046 -9.99059 -2.78295
Co -3.01227 -9.3851 -1.49851
Co -5.02046 -8.77961 -0.214073
Co -3.01227 -8.17412 1.07037
Co -5.02046 -7.56863 2.3548
Co -3.01227 -6.96314 3.63924
Co -5.02046 -6.35765 4.92368
Co -3.01227 -5.75216 6.20812
Co -5.02046 -5.14667 7.49256
Co -3.01227 -4.54118 8.777
Co -5.02046 -3.93569 10.0614
Co -3.01227 -3.3302 11.3459
Co -5.02046 -2.72471 12.6303
Co -3.01227 -2.11922 13.9147
Co -3.01227 -13.018 -13.9147
Co -1.00409 -12.4125 -12.6303
Co -3.01227 -11.8071 -11.3459
Co -1.00409 -11.2016 -10.0614
Co -3.01227 -10.5961 -8.777
Co -1.00409 -9.99059 -7.49256
Co -3.01227 -9.3851 -6.20812
Co -1.00409 -8.77961 -4.92368
Co -3.01227 -8.17412 -3.63924
Co -1.00409 -7.56863 -2.3548
Co -3.01227 -6.96314 -1.07037
Co -1.00409 -6.35765 0.214073
Co -3.01227 -5.75216 1.49851
Co -1.00409 -5.14667 2.78295
Co -3.01227 -4.54118 4.06739
Co -1.00409 -3.93569 5.35183
Co -3.01227 -3.3302 6.63626
Co -1.00409 -2.72471 7.9207
Co -3.01227 -2.11922 9.20514
Co -1.00409 -1.51373 10.4896
Co -3.01227 -0.908235 11.774
Co -1.00409 -0.302745 13.0585
Co 1.00409 -10.5961 -13.4866
Co -1.00409 -9.99059 -12.2022
Co 1.00409 -9.3851 -10.9177
Co -1.00409 -8.77961 -9.63329
Co 1.00409 -8.17412 -8.34885
Co -1.00409 -7.56863 -7.06441
Co 1.00409 -6.96314 -5.77997
Co -1.00409 -6.35765 -4.49553
Co 1.00409 -5.75216 -3.2111
Co -1.00409 -5.14667 -1.92666
Co 1.00409 -4.54118 -0.642219
Co -1.00409 -3.93569 0.642219
Co 1.00409 -3.3302 1.92666
Co -1.00409 -2.72471 3.2111
Co 1.00409 -2.11922 4.49553
Co -1.00409 -1.51373 5.77997
Co 1.00409 -0.908235 7.06441
Co -1.00409 -0.302745 8.34885
Co 1.00409 0.302745 9.63329
Co -1.00409 0.908235 10.9177
Co 1.00409 1.51373 12.2022
Co -1.00409 2.11922 13.4866
Co 1.00409 -8.17412 -13.0585
Co 3.01227 -7.56863 -11.774
Co 1.00409 -6.96314 -10.4896
Co 3.01227 -6.35765 -9.20514
Co 1.00409 -5.75216 -7.9207
Co 3.01227 -5.14667 -6.63626
Co 1.00409 -4.54118 -5.35183
Co 3.01227 -3.93569 -4.06739
Co 1.00409 -3.3302 -2.78295
Co 3.01227 -2.72471 -1.49851
Co 1.00409 -2.11922 -0.214073
Co 3.01227 -1.51373 1.07037
Co 1.00409 -0.908235 2.3548
Co 3.01227 -0.302745 3.63924
Co 1.00409 0.302745 4.92368
Co 3.01227 0.908235 6.20812
Co 1.00409 1.51373 7.49256
Co 3.01227 2.11922 8.777
Co 1.00409 2.72471 10.0614
Co 3.01227 3.3302 11.3459
Co 1.00409 3.93569 12.6303
Co 3.01227 4.54118 13.9147
Co 3.01227 -6.35765 -13.9147
Co 5.02046 -5.75216 -12.6303
Co 3.01227 -5.14667 -11.3459
Co 5.02046 -4.54118 -10.0614
Co 3.01227 -3.93569 -8.777
Co 5.02046 -3.3302 -7.49256
Co 3.01227 -2.72471 -6.20812
Co 5.02046 -2.11922 -4.92368
Co 3.01227 -1.51373 -3.63924
Co 5.02046 -0.908235 -2.3548
Co 3.01227 -0.302745 -1.07037
Co 5.02046 0.302745 0.214073
Co 3.01227 0.908235 1.49851
Co 5.02046 1.51373 2.78295
Co 3.01227 2.11922 4.06739
Co 5.02046 2.72471 5.35183
Co 3.01227 3.3302 6.63626
Co 5.02046 3.93569 7.9207
Co 3.01227 4.54118 9.20514
Co 5.02046 5.14667 10.4896
Co 3.01227 5.75216 11.774
Co 5.02046 6.35765 13.0585
Co 7.02864 -3.93569 -13.4866
Co 5.02046 -3.3302 -12.2022
Co 7.02864 -2.72471 -10.9177
Co 5.02046 -2.11922 -9.63329
Co 7.02864 -1.51373 -8.34885
Co 5.02046 -0.908235 -7.06441
Co 7.02864 -0.302745 -5.77997
Co 5.02046 0.302745 -4.49553
Co 7.02864 0.908235 -3.2111
Co 5.02046 1.51373 -1.92666
Co 7.02864 2.11922 -0.642219
Co 5.02046 2.72471 0.642219
Co 7.02864 3.3302 1.92666
Co 5.02046 3.93569 3.2111
Co 7.02864 4.54118 4.49553
Co 5.02046 5.14667 5.77997
Co 7.02864 5.75216 7.06441
Co 5.02046 6.35765 8.34885
Co 7.02864 6.96314 9.63329
Co 5.02046 7.56863 10.9177
Co 7.02864 8.17412 12.2022
Co 5.02046 8.77961 13.4866
Co 7.02864 -1.51373 -13.0585
Co 7.02864 -0.302745 -10.4896
Co 7.02864 0.908235 -7.9207
Co 7.02864 2.11922 -5.35183
Co 7.02864 3.3302 -2.78295
Co 7.02864 4.54118 -0.214073
Co 7.02864 5.75216 2.3548
Co 7.02864 6.96314 4.92368
Co 7.02864 8.17412 7.49256
Co 7.02864 9.3851 10.0614
Co 7.02864 10.5961 12.6303
Co -7.02864 -13.018 9.63329
Co -7.02864 -11.8071 12.2022
Co -7.02864 -13.018 4.92368
Co -5.02046 -12.4125 6.20812
Co -7.02864 -11.8071 7.49256
Co -5.02046 -11.2016 8.777
Co -7.02864 -10.5961 10.0614
Co -5.02046 -9.99059 11.3459
Co -7.02864 -9.3851 12.6303
Co -5.02046 -8.77961 13.9147
Co -3.01227 -13.018 0.214073
Co -5.02046 -12.4125 1.49851
Co -3.01227 -11.8071 2.78295
Co -5.02046 -11.2016 4.06739
Co -3.01227 -10.5961 5.35183
Co -5.02046 -9.99059 6.63626
Co -3.01227 -9.3851 7.9207
Co -5.02046 -8.77961 9.20514
Co -3.01227 -8.17412 10.4896
Co -5.02046 -7.56863 11.774
Co -3.01227 -6.96314 13.0585
Co -3.01227 -13.018 -4.49553
Co -1.00409 -12.4125 -3.2111
Co -3.01227 -11.8071 -1.92666
Co -1.00409 -11.2016 -0.642219
Co -3.01227 -10.5961 0.642219
Co -1.00409 -9.99059 1.92666
Co -3.01227 -9.3851 3.2111
Co -1.00409 -8.77961 4.49553
Co -3.01227 -8.17412 5.77997
Co -1.00409 -7.56863 7.06441
Co -3.01227 -6.96314 8.34885
Co -1.00409 -6.35765 9.63329
Co -3.01227 -5.75216 10.9177
Co -1.00409 -5.14667 12.2022
Co -3.01227 -4.54118 13.4866
Co 1.00409 -13.018 -9.20514
Co -1.00409 -12.4125 -7.9207
Co 1.00409 -11.8071 -6.63626
Co -1.00409 -11.2016 -5.35183
Co 1.00409 -10.5961 -4.06739
Co -1.00409 -9.99059 -2.78295
Co 1.00409 -9.3851 -1.49851
Co -1.00409 -8.77961 -0.214073
Co 1.00409 -8.17412 1.07037
Co -1.00409 -7.56863 2.3548
Co 1.00409 -6.96314 3.63924
Co -1.00409 -6.35765 4.92368
Co 1.00409 -5.75216 6.20812
Co -1.00409 -5.14667 7.49256
Co 1.00409 -4.54118 8.777
Co -1.00409 -3.93569 10.0614
Co 1.00409 -3.3302 11.3459
Co -1.00409 -2.72471 12.6303
Co 1.00409 -2.11922 13.9147
Co 1.00409 -13.018 -13.9147
Co 3.01227 -12.4125 -12.6303
Co 1.00409 -11.8071 -11.3459
Co 3.01227 -11.2016 -10.0614
Co 1.00409 -10.5961 -8.777
Co 3.01227 -9.99059 -7.49256
Co 1.00409 -9.3851 -6.20812
Co 3.01227 -8.77961 -4.92368
Co 1.00409 -8.17412 -3.63924
Co 3.01227 -7.56863 -2.3548
Co 1.00409 -6.96314 -1.07037
Co 3.01227 -6.35765 0.214073
Co 1.00409 -5.75216 1.49851
Co 3.01227 -5.14667 2.78295
Co 1.00409 -4.54118 4.06739
Co 3.01227 -3.93569 5.35183
Co 1.00409 -3.3302 6.63626
Co 3.01227 -2.72471 7.9207
Co 1.00409 -2.11922 9.20514
Co 3.01227 -1.51373 10.4896
Co 1.00409 -0.908235 11.774
Co 3.01227 -0.302745 13.0585
Co 5.02046 -10.5961 -13.4866
Co 3.01227 -9.99059 -12.2022
Co 5.02046 -9.3851 -10.9177
Co 3.01227 -8.77961 -9.63329
Co 5.02046 -8.17412 -8.34885
Co 3.01227 -7.56863 -7.06441
Co 5.02046 -6.96314 -5.77997
Co 3.01227 -6.35765 -4.49553
Co 5.02046 -5.75216 -3.2111
Co 3.01227 -5.14667 -1.92666
Co 5.02046 -4.54118 -0.642219
Co 3.01227 -3.93569 0.642219
Co 5.02046 -3.3302 1.92666
Co 3.01227 -2.72471 3.2111
Co 5.02046 -2.11922 4.49553
Co 3.01227 -1.51373 5.77997
Co 5.02046 -0.908235 7.06441
Co 3.01227 -0.302745 8.34885
Co 5.02046 0.302745 9.63329
Co 3.01227 0.908235 10.9177
Co 5.02046 1.51373 12.2022
Co 3.01227 2.11922 13.4866
Co 5.02046 -8.17412 -13.0585
Co 7.02864 -7.56863 -11.774
Co 5.02046 -6.96314 -10.4896
Co 7.02864 -6.35765 -9.20514
Co 5.02046 -5.75216 -7.9207
Co 7.02864 -5.14667 -6.63626
Co 5.02046 -4.54118 -5.35183
Co 7.02864 -3.93569 -4.06739
Co 5.02046 -3.3302 -2.78295
Co 7.02864 -2.72471 -1.49851
Co 5.02046 -2.11922 -0.214073
Co 7.02864 -1.51373 1.07037
Co 5.02046 -0.908235 2.3548
Co 7.02864 -0.302745 3.63924
Co 5.02046 0.302745 4.92368
Co 7.02864 0.908235 6.20812
Co 5.02046 1.51373 7.49256
Co 7.02864 2.11922 8.777
Co 5.02046 2.72471 10.0614
Co 7.02864 3.3302 11.3459
Co 5.02046 3.93569 12.6303
Co 7.02864 4.54118 13.9147
Co 7.02864 -6.35765 -13.9147
Co 7.02864 -5.14667 -11.3459
Co 7.02864 -3.93569 -8.777
Co 7.02864 -2.72471 -6.20812
Co 7.02864 -1.51373 -3.63924
Co 7.02864 -0.302745 -1.07037
Co 7.02864 0.908235 1.49851
Co 7.02864 2.11922 4.06739
Co 7.02864 3.3302 6.63626
Co 7.02864 4.54118 9.20514
Co 7.02864 5.75216 11.774
Co -3.01227 -13.018 9.63329
Co -5.02046 -12.4125 10.9177
Co -3.01227 -11.8071 12.2022
Co -5.02046 -11.2016 13.4866
Co -3.01227 -13.018 4.92368
Co -1.00409 -12.4125 6.20812
Co -3.01227 -11.8071 7.49256
Co -1.00409 -11.2016 8.777
Co -3.01227 -10.5961 10.0614
Co -1.00409 -9.99059 11.3459
Co -3.01227 -9.3851 12.6303
Co -1.00409 -8.77961 13.9147
Co 1.00409 -13.018 0.214073
Co -1.00409 -12.4125 1.49851
Co 1.00409 -11.8071 2.78295
Co -1.00409 -11.2016 4.06739
Co 1.00409 -10.5961 5.35183
Co -1.00409 -9.99059 6.63626
Co 1.00409 -9.3851 7.9207
Co -1.00409 -8.77961 9.20514
Co 1.00409 -8.17412 10.4896
Co -1.00409 -7.56863 11.774
Co 1.00409 -6.96314 13.0585
Co 1.00409 -13.018 -4.49553
Co 3.01227 -12.4125 -3.2111
Co 1.00409 -11.8071 -1.92666
Co 3.01227 -11.2016 -0.642219
Co 1.00409 -10.5961 0.642219
Co 3.01227 -9.99059 1.92666
Co 1.00409 -9.3851 3.2111
Co 3.01227 -8.77961 4.49553
Co 1.00409 -8.17412 5.77997
Co 3.01227 -7.56863 7.06441
Co 1.00409 -6.96314 8.34885
Co 3.01227 -6.35765 9.63329
Co 1.00409 -5.75216 10.9177
Co 3.01227 -5.14667 12.2022
Co 1.00409 -4.54118 13.4866
Co 5.02046 -13.018 -9.20514
Co 3.01227 -12.4125 -7.9207
Co 5.02046 -11.8071 -6.63626
Co 3.01227 -11.2016 -5.35183
Co 5.02046 -10.5961 -4.06739
Co 3.01227 -9.99059 -2.78295
Co 5.02046 -9.3851 -1.49851
Co 3.01227 -8.77961 -0.214073
Co 5.02046 -8.17412 1.07037
Co 3.01227 -7.56863 2.3548
Co 5.02046 -6.96314 3.63924
Co 3.01227 -6.35765 4.92368
Co 5.02046 -5.75216 6.20812
Co 3.01227 -5.14667 7.49256
Co 5.02046 -4.54118 8.777
Co 3.01227 -3.93569 10.0614
Co 5.02046 -3.3302 11.3459
Co 3.01227 -2.72471 12.6303
Co 5.02046 -2.11922 13.9147
Co 5.02046 -13.018 -13.9147
Co 7.02864 -12.4125 -12.6303
Co 5.02046 -11.8071 -11.3459
Co 7.02864 -11.2016 -10.0614
Co 5.02046 -10.5961 -8.777
Co 7.02864 -9.99059 -7.49256
Co 5.02046 -9.3851 -6.20812
Co 7.02864 -8.77961 -4.92368
Co 5.02046 -8.17412 -3.63924
Co 7.02864 -7.56863 -2.3548
Co 5.02046 -6.96314 -1.07037
Co 7.02864 -6.35765 0.214073
Co 5.02046 -5.75216 1.49851
Co 7.02864 -5.14667 2.78295
Co 5.02046 -4.54118 4.06739
Co 7.02864 -3.93569 5.35183
Co 5.02046 -3.3302 6.63626
Co 7.02864 -2.72471 7.9207
Co 5.02046 -2.11922 9.20514
Co 7.02864 -1.51373 10.4896
Co 5.02046 -0.908235 11.774
Co 7.02864 -0.302745 13.0585
Co 7.02864 -9.99059 -12.2022
Co 7.02864 -8.77961 -9.63329
Co 7.02864 -7.56863 -7.06441
Co 7.02864 -6.35765 -4.49553
Co 7.02864 -5.14667 -1.92666
Co 7.02864 -3.93569 0.642219
Co 7.02864 -2.72471 3.2111
Co 7.02864 -1.51373 5.77997
Co 7.02864 -0.302745 8.34885
Co 7.02864 0.908235 10.9177
Co 7.02864 2.11922 13.4866
Co 1.00409 -13.018 9.63329
Co -1.00409 -12.4125 10.9177
Co 1.00409 -11.8071 12.2022
Co -1.00409 -11.2016 13.4866
Co 1.00409 -13.018 4.92368
Co 3.01227 -12.4125 6.20812
Co 1.00409 -11.8071 7.49256
Co 3.01227 -11.2016 8.777
Co 1.00409 -10.5961 10.0614
Co 3.01227 -9.99059 11.3459
Co 1.00409 -9.3851 12.6303
Co 3.01227 -8.77961 13.9147
Co 5.02046 -13.018 0.214073
Co 3.01227 -12.4125 1.49851
Co 5.02046 -11.8071 2.78295
Co 3.01227 -11.2016 4.06739
Co 5.02046 -10.5961 5.35183
Co 3.01227 -9.99059 6.63626
Co 5.02046 -9.3851 7.9207
Co 3.01227 -8.77961 9.20514
Co 5.02046 -8.17412 10.4896
Co 3.01227 -7.56863 11.774
Co 5.02046 -6.96314 13.0585
Co 5.02046 -13.018 -4.49553
Co 7.02864 -12.4125 -3.2111
Co 5.02046 -11.8071 -1.92666
Co 7.02864 -11.2016 -0.642219
Co 5.02046 -10.5961 0.642219
Co 7.02864 -9.99059 1.92666
Co 5.02046 -9.3851 3.2111
Co 7.02864 -8.77961 4.49553
Co 5.02046 -8.17412 5.77997
Co 7.02864 -7.56863 7.06441
Co 5.02046 -6.96314 8.34885
Co 7.02864 -6.35765 9.63329
Co 5.02046 -5.75216 10.9177
Co 7.02864 -5.14667 12.2022
Co 5.02046 -4.54118 13.4866
Co 7.02864 -12.4125 -7.9207
Co 7.02864 -11.2016 -5.35183
Co 7.02864 -9.99059 -2.78295
Co 7.02864 -8.77961 -0.214073
Co 7.02864 -7.56863 2.3548
Co 7.02864 -6.35765 4.92368
Co 7.02864 -5.14667 7.49256
Co 7.02864 -3.93569 10.0614
Co 7.02864 -2.72471 12.6303
Co 5.02046 -13.018 9.63329
Co 3.01227 -12.4125 10.9177
Co 5.02046 -11.8071 12.2022
Co 3.01227 -11.2016 13.4866
Co 5.02046 -13.018 4.92368
Co 7.02864 -12.4125 6.20812
Co 5.02046 -11.8071 7.49256
Co 7.02864 -11.2016 8.777
Co 5.02046 -10.5961 10.0614
Co 7.02864 -9.99059 11.3459
Co 5.02046 -9.3851 12.6303
Co 7.02864 -8.77961 13.9147
Co 7.02864 -12.4125 1.49851
Co 7.02864 -11.2016 4.06739
Co 7.02864 -9.99059 6.63626
Co 7.02864 -8.77961 9.20514
Co 7.02864 -7.56863 11.774
Co 7.02864 -12.4125 10.9177
Co 7.02864 -11.2016 13.4866
