52
Model 1
Ti 6.92222 6.66049 2.3284
Ti 5.64041 1.66512 2.3284
Ti 6.60177 4.99537 0
Ti 7.88358 3.88529 2.3284
Ti 8.52449 7.21553 0
Ti 9.8063 6.10545 2.3284
Ti 5.64041 -7.8e-11 0
Ti 7.56313 2.22016 0
Ti 8.84494 1.11008 2.3284
Ti 9.48585 4.44033 0
Ti 10.7677 3.33024 2.3284
Ti 11.4086 6.66049 0
Ti 12.6904 5.55041 2.3284
Ti 10.4472 1.66512 0
Ti 11.729 0.555041 2.3284
Ti 12.3699 3.88529 0
Ti 13.6517 2.7752 2.3284
Ti 14.2926 6.10545 0
Ti 15.5745 4.99537 2.3284
Ti 17.4972 7.21553 2.3284
Ti 13.3313 1.11008 0
Ti 14.6131 2.20022e-11 2.3284
Ti 15.254 3.33024 0
Ti 16.5358 2.22016 2.3284
Ti 17.1767 5.55041 0
Ti 18.4595 4.44033 2.3284
Ti 16.2154 0.555041 0
Ti 18.4595 2.7752 0
Ti 4.3586 6.66049 2.3284
Ti 4.67905 4.99537 0
Ti 3.39724 3.88529 2.3284
Ti 2.75634 7.21553 0
Ti 1.47452 6.10545 2.3284
Ti 3.71769 2.22016 0
Ti 2.43588 1.11008 2.3284
Ti 1.79498 4.44033 0
Ti 0.513165 3.33024 2.3284
Ti 25.5105 6.66049 0
Ti 24.2287 5.55041 2.3284
Ti 0.833618 1.66512 0
Ti 25.19 0.555041 2.3284
Ti 24.5491 3.88529 0
Ti 23.2673 2.7752 2.3284
Ti 22.6264 6.10545 0
Ti 21.3446 4.99537 2.3284
Ti 19.4219 7.21553 2.3284
Ti 23.5878 1.11008 0
Ti 22.306 2.20022e-11 2.3284
Ti 21.6651 3.33024 0
Ti 20.3832 2.22016 2.3284
Ti 19.7423 5.55041 0
Ti 20.7037 0.555041 0
52
Model 2
Ti 6.92222 6.66049 2.3284
Ti 5.64041 1.66512 2.3284
Ti 6.60177 4.99537 0
Ti 7.88358 3.88529 2.3284
Ti 8.52449 7.21553 0
Ti 9.8063 6.10545 2.3284
Ti 5.64041 -7.8e-11 0
Ti 7.56313 2.22016 0
Ti 8.84494 1.11008 2.3284
Ti 9.48585 4.44033 0
Ti 10.7677 3.33024 2.3284
Ti 11.4086 6.66049 0
Ti 12.6904 5.55041 2.3284
Ti 10.4472 1.66512 0
Ti 11.729 0.555041 2.3284
Ti 12.3699 3.88529 0
Ti 13.6517 2.7752 2.3284
Ti 14.2926 6.10545 0
Ti 15.5745 4.99537 2.3284
Ti 17.4972 7.21553 2.3284
Ti 13.3313 1.11008 0
Ti 14.6131 2.20022e-11 2.3284
Ti 15.254 3.33024 0
Ti 16.5358 2.22016 2.3284
Ti 17.1767 5.55041 0
Ti 18.4595 4.44033 2.3284
Ti 16.2154 0.555041 0
Ti 18.4595 2.7752 0
Ti 4.3586 6.66049 2.3284
Ti 4.67905 4.99537 0
Ti 3.39724 3.88529 2.3284
Ti 2.75634 7.21553 0
Ti 1.47452 6.10545 2.3284
Ti 3.71769 2.22016 0
Ti 2.43588 1.11008 2.3284
Ti 1.79498 4.44033 0
Ti 0.513165 3.33024 2.3284
Ti 25.5105 6.66049 0
Ti 24.2287 5.55041 2.3284
Ti 0.833618 1.66512 0
Ti 25.19 0.555041 2.3284
Ti 24.5491 3.88529 0
Ti 23.2673 2.7752 2.3284
Ti 22.6264 6.10545 0
Ti 21.3446 4.99537 2.3284
Ti 19.4219 7.21553 2.3284
Ti 23.5878 1.11008 0
Ti 22.306 2.20022e-11 2.3284
Ti 21.6651 3.33024 0
Ti 20.3832 2.22016 2.3284
Ti 19.7423 5.55041 0
Ti 20.7037 0.555041 0
