36
Model 1
Ti 0 0 0
Ti 1.6725 0 2.232
Ti 0 0 4.464
Ti 1.6725 0 6.696
Ti 0 2.89685 0
Ti 1.6725 2.89685 2.232
Ti 0 2.89685 4.464
Ti 1.6725 2.89685 6.696
Ti 0 5.79371 0
Ti 1.6725 5.79371 2.232
Ti 0 5.79371 4.464
Ti 1.6725 5.79371 6.696
Ti 2.50875 -1.44843 0
Ti 4.18125 -1.44843 2.232
Ti 2.50875 -1.44843 4.464
Ti 4.18125 -1.44843 6.696
Ti 2.50875 1.44843 0
Ti 4.18125 1.44843 2.232
Ti 2.50875 1.44843 4.464
Ti 4.18125 1.44843 6.696
Ti 2.50875 4.34528 0
Ti 4.18125 4.34528 2.232
Ti 2.50875 4.34528 4.464
Ti 4.18125 4.34528 6.696
Ti 5.0175 -2.89685 0
Ti 6.69 -2.89685 2.232
Ti 5.0175 -2.89685 4.464
Ti 6.69 -2.89685 6.696
Ti 5.0175 0 0
Ti 6.69 0 2.232
Ti 5.0175 0 4.464
Ti 6.69 0 6.696
Ti 5.0175 2.89685 0
Ti 6.69 2.89685 2.232
Ti 5.0175 2.89685 4.464
Ti 6.69 2.89685 6.696
36
Model 2
Ti 0 0 0
Ti 1.6725 0 2.232
Ti 0 0 4.464
Ti 1.6725 0 6.696
Ti 0 2.89685 0
Ti 1.6725 2.89685 2.232
Ti 0 2.89685 4.464
Ti 1.6725 2.89685 6.696
Ti 0 5.79371 0
Ti 1.6725 5.79371 2.232
Ti 0 5.79371 4.464
Ti 1.6725 5.79371 6.696
Ti 2.50875 -1.44843 0
Ti 4.18125 -1.44843 2.232
Ti 2.50875 -1.44843 4.464
Ti 4.18125 -1.44843 6.696
Ti 2.50875 1.44843 0
Ti 4.18125 1.44843 2.232
Ti 2.50875 1.44843 4.464
Ti 4.18125 1.44843 6.696
Ti 2.50875 4.34528 0
Ti 4.18125 4.34528 2.232
Ti 2.50875 4.34528 4.464
Ti 4.18125 4.34528 6.696
Ti 5.0175 -2.89685 0
Ti 6.69 -2.89685 2.232
Ti 5.0175 -2.89685 4.464
Ti 6.69 -2.89685 6.696
Ti 5.0175 0 0
Ti 6.69 0 2.232
Ti 5.0175 0 4.464
Ti 6.69 0 6.696
Ti 5.0175 2.89685 0
Ti 6.69 2.89685 2.232
Ti 5.0175 2.89685 4.464
Ti 6.69 2.89685 6.696
