128
Model 1
Fe -9.46338 0.942419 4.55377
W -9.3114 0.960075 7.3308
Fe -7.63749 0.722776 9.4954
Fe -6.56785 1.01683 7.44675
Fe -7.28711 1.54071 0.385617
W -9.60303 0.879904 1.77673
W -7.13513 1.55836 3.16265
Fe -5.46121 1.32106 5.32725
Fe -4.39157 1.61512 3.2786
Fe -9.81376 0.12449 -2.50737
Fe -8.74412 0.418548 -4.55601
W -7.42675 1.47819 -2.39142
Fe -3.28494 1.91935 1.15909
W -9.3114 0.960075 -8.84011
Fe -7.63749 0.722776 -6.67552
Fe -6.56785 1.01683 -8.72416
Fe -9.46338 -1.2224 5.61352
Fe -9.63857 -0.548953 9.63853
Fe -2.93456 0.572464 9.27998
W -7.78946 -1.45969 7.77811
W -5.32157 -0.781237 9.16403
Fe -7.28711 -0.624109 1.44537
Fe -8.35675 -0.918167 3.49402
W -9.67412 -1.97781 1.32942
Fe -7.4623 0.0493336 5.47038
Fe -4.19788 0.946764 7.30361
Fe -5.46121 -0.843752 6.387
Fe -0.758282 1.17075 5.11183
Fe -1.82792 0.876693 7.16048
Fe -0.758282 -0.921691 6.13615
W -5.61319 -0.861408 3.60996
W -3.14529 -0.18295 4.99588
W -3.0742 -1.58249 7.52727
W -0.606305 -0.904035 8.91319
Fe -0.933472 1.84419 9.13684
Fe 2.13725 -0.847275 9.02913
Fe 5.77054 0.873169 9.80261
W 0.915636 0.933452 7.27642
W 3.38353 1.61191 8.66234
Fe -8.55043 -0.24981 -0.530998
Fe -5.11083 -0.0258225 -2.72278
Fe -6.18047 -0.31988 -0.674135
W -7.49784 -1.37952 -2.83873
Fe -5.28602 0.64762 1.30223
Fe -2.02161 1.54505 3.13546
Fe -3.28494 -0.245465 2.21885
Fe 1.41799 1.76904 0.943678
Fe 0.348354 1.47498 2.99232
Fe 1.41799 -0.323404 1.968
W -3.43691 -0.263121 -0.558189
W -0.969018 0.415336 0.827732
W -0.897926 -0.984205 3.35912
W 1.56997 -0.305748 4.74504
Fe 3.24389 1.5494 5.88531
Fe 3.24389 -0.543046 6.90963
Fe 4.31353 -0.248988 4.86098
Fe 7.94682 1.47146 5.63446
W 3.09191 1.53174 3.10827
W 5.6309 0.810655 7.02558
W 8.09879 1.48911 8.4115
Fe -9.63857 -0.548953 -6.53238
Fe -6.37416 0.348477 -4.69915
Fe -7.63749 -1.44204 -5.61576
Fe -2.93456 0.572464 -6.89093
Fe -4.0042 0.278406 -4.84229
Fe -2.93456 -1.51998 -5.86661
W -7.78946 -1.45969 -8.3928
W -5.32157 -0.781237 -7.00688
W -2.78258 -1.50232 -3.08957
Fe -3.10975 1.24591 -2.86592
Fe -1.10866 0.352822 -1.9493
Fe -1.10866 -1.73962 -0.924981
Fe -0.0390228 -1.44556 -2.97363
Fe 3.59427 0.274883 -2.20015
W -1.26064 0.335166 -4.72634
W 1.20726 1.01362 -3.34042
W 1.27835 -0.385918 -0.809035
W 3.74624 0.292539 0.576887
Fe 5.42016 0.0552403 2.74148
Fe 6.4898 0.349298 0.692833
W 7.80717 1.40894 2.85742
Fe -4.19788 0.946764 -8.8673
Fe -5.46121 -0.843752 -9.78391
Fe -1.82792 0.876693 -9.01044
W -3.0742 -1.58249 -8.64365
W -0.606305 -0.904035 -7.25772
Fe -0.933472 1.84419 -7.03407
Fe 1.06761 0.951108 -6.11745
Fe 1.06761 -1.14133 -5.09313
Fe 2.13725 -0.847275 -7.14178
Fe 5.77054 0.873169 -6.3683
W 0.915636 0.933452 -8.89449
W 3.38353 1.61191 -7.50857
W 3.45462 0.212368 -4.97719
W 5.92252 0.890825 -3.59126
Fe 7.59644 0.653527 -1.42667
Fe 8.66608 0.947585 -3.47532
Fe 3.24389 -0.543046 -9.26128
W 5.6309 0.810655 -9.14534
W 8.09879 1.48911 -7.75941
Fe 9.77271 1.25181 -5.59482
Fe 1.2428 -1.81478 7.05277
Fe 4.50722 -0.917346 8.886
Fe 7.94682 -0.693359 6.69421
Fe 6.87718 -0.987417 8.74286
W 9.62074 -0.930657 8.85881
Fe 3.59427 -1.88993 -1.1404
Fe 3.41908 -1.21649 2.88462
Fe 6.68349 -0.319059 4.71785
Fe 9.05345 -0.38913 4.57471
W 7.73608 -1.44877 2.41012
Fe 9.9479 0.578371 6.55108
Fe 2.33094 -1.51563 -3.11676
Fe 5.77054 -1.29165 -5.30855
Fe 4.7009 -1.5857 -3.2599
Fe 5.59535 -0.618203 -1.28353
Fe 8.85977 0.279227 0.549696
Fe 7.59644 -1.51129 -0.366919
W 7.44446 -1.52894 -3.14396
W 9.91236 -0.850487 -1.75803
Fe 1.2428 -1.81478 -9.11815
Fe 4.50722 -0.917346 -7.28492
Fe 7.94682 -0.693359 -9.4767
Fe 6.87718 -0.987417 -7.42805
Fe 7.77163 -0.0199158 -5.45169
Fe 9.77271 -0.913001 -4.53507
W 9.62074 -0.930657 -7.31211
Fe 9.9479 0.578371 -9.61984
