48
Model 1
Fe 1.14734 2.20206 4.4148
Fe 1.72101 5.03083 4.4148
Fe 4.58936 5.35275 4.4148
Fe 1.14734 2.20206 1.4716
Fe 1.72101 5.03083 1.4716
Fe 4.58936 5.35275 1.4716
Fe -1.32936e-16 -1.21684e-16 2.9432
Fe 2.86835 0.321916 2.9432
Fe 3.44202 3.15069 2.9432
Fe 6.31037 3.47261 2.9432
Fe 0 0 0
Fe 2.86835 0.321916 1.42864e-16
Fe 3.44202 3.15069 2.85728e-16
Fe 6.31037 3.47261 4.28593e-16
Fe 5.16303 1.27055 4.4148
Fe 8.03138 1.59246 4.4148
Fe 8.60505 4.42124 4.4148
Fe 11.4734 4.74315 4.4148
Fe 5.16303 1.27055 1.4716
Fe 8.03138 1.59246 1.4716
Fe 8.60505 4.42124 1.4716
Fe 11.4734 4.74315 1.4716
Fe 6.88404 -0.609599 2.9432
Fe 9.75239 -0.287683 2.9432
Fe 10.3261 2.54109 2.9432
Fe 13.1944 2.86301 2.9432
Fe 6.88404 -0.609599 2.85728e-16
Fe 9.75239 -0.287683 4.28593e-16
Fe 10.3261 2.54109 5.71457e-16
Fe 13.1944 2.86301 7.14321e-16
Fe 12.0471 0.660947 4.4148
Fe 14.9154 0.982863 4.4148
Fe 15.4891 3.81164 4.4148
Fe 18.3574 4.13355 4.4148
Fe 12.0471 0.660947 1.4716
Fe 14.9154 0.982863 1.4716
Fe 15.4891 3.81164 1.4716
Fe 18.3574 4.13355 1.4716
Fe 13.7681 -1.2192 2.9432
Fe 16.6364 -0.897282 2.9432
Fe 17.2101 1.93149 2.9432
Fe 20.0785 2.25341 2.9432
Fe 13.7681 -1.2192 5.71457e-16
Fe 16.6364 -0.897282 7.14321e-16
Fe 17.2101 1.93149 8.57185e-16
Fe 20.0785 2.25341 1.00005e-15
Fe 18.9311 0.0513488 4.4148
Fe 18.9311 0.0513488 1.4716
48
Model 2
Fe 1.14734 2.20206 4.4148
Fe 1.72101 5.03083 4.4148
Fe 4.58936 5.35275 4.4148
Fe 1.14734 2.20206 1.4716
Fe 1.72101 5.03083 1.4716
Fe 4.58936 5.35275 1.4716
Fe -1.32936e-16 -1.21684e-16 2.9432
Fe 2.86835 0.321916 2.9432
Fe 3.44202 3.15069 2.9432
Fe 6.31037 3.47261 2.9432
Fe 0 0 0
Fe 2.86835 0.321916 1.42864e-16
Fe 3.44202 3.15069 2.85728e-16
Fe 6.31037 3.47261 4.28593e-16
Fe 5.16303 1.27055 4.4148
Fe 8.03138 1.59246 4.4148
Fe 8.60505 4.42124 4.4148
Fe 11.4734 4.74315 4.4148
Fe 5.16303 1.27055 1.4716
Fe 8.03138 1.59246 1.4716
Fe 8.60505 4.42124 1.4716
Fe 11.4734 4.74315 1.4716
Fe 6.88404 -0.609599 2.9432
Fe 9.75239 -0.287683 2.9432
Fe 10.3261 2.54109 2.9432
Fe 13.1944 2.86301 2.9432
Fe 6.88404 -0.609599 2.85728e-16
Fe 9.75239 -0.287683 4.28593e-16
Fe 10.3261 2.54109 5.71457e-16
Fe 13.1944 2.86301 7.14321e-16
Fe 12.0471 0.660947 4.4148
Fe 14.9154 0.982863 4.4148
Fe 15.4891 3.81164 4.4148
Fe 18.3574 4.13355 4.4148
Fe 12.0471 0.660947 1.4716
Fe 14.9154 0.982863 1.4716
Fe 15.4891 3.81164 1.4716
Fe 18.3574 4.13355 1.4716
Fe 13.7681 -1.2192 2.9432
Fe 16.6364 -0.897282 2.9432
Fe 17.2101 1.93149 2.9432
Fe 20.0785 2.25341 2.9432
Fe 13.7681 -1.2192 5.71457e-16
Fe 16.6364 -0.897282 7.14321e-16
Fe 17.2101 1.93149 8.57185e-16
Fe 20.0785 2.25341 1.00005e-15
Fe 18.9311 0.0513488 4.4148
Fe 18.9311 0.0513488 1.4716
