64
Model 1
Fe 8.86979 5.35275 4.4148
Fe 8.86979 5.35275 1.4716
Fe 7.18611 0.321916 2.9432
Fe 7.18611 3.15069 2.9432
Fe 10.5908 3.47261 2.9432
Fe 7.18611 0.321916 -5.85743e-16
Fe 7.18611 3.15069 -4.42878e-16
Fe 10.5908 3.47261 5.57175e-16
Fe 9.44346 1.27055 4.4148
Fe 12.3118 1.59246 4.4148
Fe 12.8855 4.42124 4.4148
Fe 15.7538 4.74315 4.4148
Fe 9.44346 1.27055 1.4716
Fe 12.3118 1.59246 1.4716
Fe 12.8855 4.42124 1.4716
Fe 15.7538 4.74315 1.4716
Fe 11.1645 6.30138 2.9432
Fe 14.0328 6.6233 2.9432
Fe 14.6065 2.54109 2.9432
Fe 17.4748 2.86301 2.9432
Fe 11.1645 6.30138 7.00035e-16
Fe 14.0328 6.6233 8.42899e-16
Fe 14.6065 2.54109 7.0004e-16
Fe 17.4748 2.86301 8.42899e-16
Fe 16.3275 0.660947 4.4148
Fe 19.1958 0.982863 4.4148
Fe 19.7695 3.81164 4.4148
Fe 16.3275 0.660947 1.4716
Fe 19.1958 0.982863 1.4716
Fe 19.7695 3.81164 1.4716
Fe 18.0485 5.69178 2.9432
Fe 21.4542 6.0137 2.9432
Fe 21.4542 1.93149 2.9432
Fe 18.0485 5.69178 9.85764e-16
Fe 21.4542 6.0137 1.12863e-15
Fe 21.4542 1.93149 9.85764e-16
Fe 5.50244 5.35275 4.4148
Fe 5.50244 5.35275 1.4716
Fe 3.78142 3.47261 2.9432
Fe 3.78142 3.47261 -3.00011e-16
Fe 4.92876 1.27055 4.4148
Fe 2.06041 1.59246 4.4148
Fe 1.48674 4.42124 4.4148
Fe 27.1546 4.74315 4.4148
Fe 4.92876 1.27055 1.4716
Fe 2.06041 1.59246 1.4716
Fe 1.48674 4.42124 1.4716
Fe 27.1546 4.74315 1.4716
Fe 3.20775 6.30138 2.9432
Fe 0.339404 6.6233 2.9432
Fe 28.3019 2.54109 2.9432
Fe 25.4335 2.86301 2.9432
Fe 3.20775 6.30138 -1.57151e-16
Fe 0.339404 6.6233 -1.42864e-17
Fe 28.3019 2.54109 7.00041e-16
Fe 25.4335 2.86301 8.42901e-16
Fe 26.5809 0.660947 4.4148
Fe 23.7125 0.982863 4.4148
Fe 23.1389 3.81164 4.4148
Fe 26.5809 0.660947 1.4716
Fe 23.7125 0.982863 1.4716
Fe 23.1389 3.81164 1.4716
Fe 24.8599 5.69178 2.9432
Fe 24.8599 5.69178 9.85763e-16
64
Model 2
Fe 8.86979 5.35275 4.4148
Fe 8.86979 5.35275 1.4716
Fe 7.18611 0.321916 2.9432
Fe 7.18611 3.15069 2.9432
Fe 10.5908 3.47261 2.9432
Fe 7.18611 0.321916 -5.85743e-16
Fe 7.18611 3.15069 -4.42878e-16
Fe 10.5908 3.47261 5.57175e-16
Fe 9.44346 1.27055 4.4148
Fe 12.3118 1.59246 4.4148
Fe 12.8855 4.42124 4.4148
Fe 15.7538 4.74315 4.4148
Fe 9.44346 1.27055 1.4716
Fe 12.3118 1.59246 1.4716
Fe 12.8855 4.42124 1.4716
Fe 15.7538 4.74315 1.4716
Fe 11.1645 6.30138 2.9432
Fe 14.0328 6.6233 2.9432
Fe 14.6065 2.54109 2.9432
Fe 17.4748 2.86301 2.9432
Fe 11.1645 6.30138 7.00035e-16
Fe 14.0328 6.6233 8.42899e-16
Fe 14.6065 2.54109 7.0004e-16
Fe 17.4748 2.86301 8.42899e-16
Fe 16.3275 0.660947 4.4148
Fe 19.1958 0.982863 4.4148
Fe 19.7695 3.81164 4.4148
Fe 16.3275 0.660947 1.4716
Fe 19.1958 0.982863 1.4716
Fe 19.7695 3.81164 1.4716
Fe 18.0485 5.69178 2.9432
Fe 21.4542 6.0137 2.9432
Fe 21.4542 1.93149 2.9432
Fe 18.0485 5.69178 9.85764e-16
Fe 21.4542 6.0137 1.12863e-15
Fe 21.4542 1.93149 9.85764e-16
Fe 5.50244 5.35275 4.4148
Fe 5.50244 5.35275 1.4716
Fe 3.78142 3.47261 2.9432
Fe 3.78142 3.47261 -3.00011e-16
Fe 4.92876 1.27055 4.4148
Fe 2.06041 1.59246 4.4148
Fe 1.48674 4.42124 4.4148
Fe 27.1546 4.74315 4.4148
Fe 4.92876 1.27055 1.4716
Fe 2.06041 1.59246 1.4716
Fe 1.48674 4.42124 1.4716
Fe 27.1546 4.74315 1.4716
Fe 3.20775 6.30138 2.9432
Fe 0.339404 6.6233 2.9432
Fe 28.3019 2.54109 2.9432
Fe 25.4335 2.86301 2.9432
Fe 3.20775 6.30138 -1.57151e-16
Fe 0.339404 6.6233 -1.42864e-17
Fe 28.3019 2.54109 7.00041e-16
Fe 25.4335 2.86301 8.42901e-16
Fe 26.5809 0.660947 4.4148
Fe 23.7125 0.982863 4.4148
Fe 23.1389 3.81164 4.4148
Fe 26.5809 0.660947 1.4716
Fe 23.7125 0.982863 1.4716
Fe 23.1389 3.81164 1.4716
Fe 24.8599 5.69178 2.9432
Fe 24.8599 5.69178 9.85763e-16
