64
Model 1
Fe 8.74979 5.35275 4.4148
Fe 8.74979 5.35275 1.4716
Fe 7.26611 0.321916 2.9432
Fe 7.26611 3.15069 2.9432
Fe 10.4708 3.47261 2.9432
Fe 7.26611 0.321916 -5.85743e-16
Fe 7.26611 3.15069 -4.42877e-16
Fe 10.4708 3.47261 5.5717e-16
Fe 9.32346 1.27055 4.4148
Fe 12.1918 1.59246 4.4148
Fe 12.7655 4.42124 4.4148
Fe 15.6338 4.74315 4.4148
Fe 9.32346 1.27055 1.4716
Fe 12.1918 1.59246 1.4716
Fe 12.7655 4.42124 1.4716
Fe 15.6338 4.74315 1.4716
Fe 11.0445 6.30138 2.9432
Fe 13.9128 6.6233 2.9432
Fe 14.4865 2.54109 2.9432
Fe 17.3548 2.86301 2.9432
Fe 11.0445 6.30138 7.00035e-16
Fe 13.9128 6.6233 8.42899e-16
Fe 14.4865 2.54109 7.00036e-16
Fe 17.3548 2.86301 8.429e-16
Fe 16.2075 0.660947 4.4148
Fe 19.0758 0.982863 4.4148
Fe 19.6495 3.81164 4.4148
Fe 16.2075 0.660947 1.4716
Fe 19.0758 0.982863 1.4716
Fe 19.6495 3.81164 1.4716
Fe 17.9285 5.69178 2.9432
Fe 21.1342 6.0137 2.9432
Fe 21.1342 1.93149 2.9432
Fe 17.9285 5.69178 9.85764e-16
Fe 21.1342 6.0137 1.12863e-15
Fe 21.1342 1.93149 9.85762e-16
Fe 5.78244 5.35275 4.4148
Fe 5.78244 5.35275 1.4716
Fe 4.06142 3.47261 2.9432
Fe 4.06142 3.47261 -3.00011e-16
Fe 5.20876 1.27055 4.4148
Fe 2.34041 1.59246 4.4148
Fe 1.76674 4.42124 4.4148
Fe 26.6346 4.74315 4.4148
Fe 5.20876 1.27055 1.4716
Fe 2.34041 1.59246 1.4716
Fe 1.76674 4.42124 1.4716
Fe 26.6346 4.74315 1.4716
Fe 3.48775 6.30138 2.9432
Fe 0.619404 6.6233 2.9432
Fe 0.045734 2.54109 2.9432
Fe 24.9135 2.86301 2.9432
Fe 3.48775 6.30138 -1.5715e-16
Fe 0.619404 6.6233 -1.42866e-17
Fe 0.045734 2.54109 -1.57148e-16
Fe 24.9135 2.86301 8.42903e-16
Fe 26.0609 0.660947 4.4148
Fe 23.1925 0.982863 4.4148
Fe 22.6189 3.81164 4.4148
Fe 26.0609 0.660947 1.4716
Fe 23.1925 0.982863 1.4716
Fe 22.6189 3.81164 1.4716
Fe 24.3399 5.69178 2.9432
Fe 24.3399 5.69178 9.85765e-16
64
Model 2
Fe 8.74979 5.35275 4.4148
Fe 8.74979 5.35275 1.4716
Fe 7.26611 0.321916 2.9432
Fe 7.26611 3.15069 2.9432
Fe 10.4708 3.47261 2.9432
Fe 7.26611 0.321916 -5.85743e-16
Fe 7.26611 3.15069 -4.42877e-16
Fe 10.4708 3.47261 5.5717e-16
Fe 9.32346 1.27055 4.4148
Fe 12.1918 1.59246 4.4148
Fe 12.7655 4.42124 4.4148
Fe 15.6338 4.74315 4.4148
Fe 9.32346 1.27055 1.4716
Fe 12.1918 1.59246 1.4716
Fe 12.7655 4.42124 1.4716
Fe 15.6338 4.74315 1.4716
Fe 11.0445 6.30138 2.9432
Fe 13.9128 6.6233 2.9432
Fe 14.4865 2.54109 2.9432
Fe 17.3548 2.86301 2.9432
Fe 11.0445 6.30138 7.00035e-16
Fe 13.9128 6.6233 8.42899e-16
Fe 14.4865 2.54109 7.00036e-16
Fe 17.3548 2.86301 8.429e-16
Fe 16.2075 0.660947 4.4148
Fe 19.0758 0.982863 4.4148
Fe 19.6495 3.81164 4.4148
Fe 16.2075 0.660947 1.4716
Fe 19.0758 0.982863 1.4716
Fe 19.6495 3.81164 1.4716
Fe 17.9285 5.69178 2.9432
Fe 21.1342 6.0137 2.9432
Fe 21.1342 1.93149 2.9432
Fe 17.9285 5.69178 9.85764e-16
Fe 21.1342 6.0137 1.12863e-15
Fe 21.1342 1.93149 9.85762e-16
Fe 5.78244 5.35275 4.4148
Fe 5.78244 5.35275 1.4716
Fe 4.06142 3.47261 2.9432
Fe 4.06142 3.47261 -3.00011e-16
Fe 5.20876 1.27055 4.4148
Fe 2.34041 1.59246 4.4148
Fe 1.76674 4.42124 4.4148
Fe 26.6346 4.74315 4.4148
Fe 5.20876 1.27055 1.4716
Fe 2.34041 1.59246 1.4716
Fe 1.76674 4.42124 1.4716
Fe 26.6346 4.74315 1.4716
Fe 3.48775 6.30138 2.9432
Fe 0.619404 6.6233 2.9432
Fe 0.045734 2.54109 2.9432
Fe 24.9135 2.86301 2.9432
Fe 3.48775 6.30138 -1.5715e-16
Fe 0.619404 6.6233 -1.42866e-17
Fe 0.045734 2.54109 -1.57148e-16
Fe 24.9135 2.86301 8.42903e-16
Fe 26.0609 0.660947 4.4148
Fe 23.1925 0.982863 4.4148
Fe 22.6189 3.81164 4.4148
Fe 26.0609 0.660947 1.4716
Fe 23.1925 0.982863 1.4716
Fe 22.6189 3.81164 1.4716
Fe 24.3399 5.69178 2.9432
Fe 24.3399 5.69178 9.85765e-16
