8
Model 1
Ti 0 0 0
Ti 1.69412 0 2.3281
Ti 0 2.9343 0
Ti 1.69412 2.9343 2.3281
Ti 2.54118 -1.46715 0
Ti 4.2353 -1.46715 2.3281
Ti 2.54118 1.46715 0
Ti 4.2353 1.46715 2.3281
8
Model 2
Ti 0 0 0
Ti 1.69412 0 2.3281
Ti 0 2.9343 0
Ti 1.69412 2.9343 2.3281
Ti 2.54118 -1.46715 0
Ti 4.2353 -1.46715 2.3281
Ti 2.54118 1.46715 0
Ti 4.2353 1.46715 2.3281
