52
Model 1
Ti 7.76191 2.7582 0.849051
Ti 9.05554 1.97411 3.39621
Ti 9.05554 4.73231 2.54715
Ti 7.76191 -7.6e-11 -4.34363e-16
Ti 10.2997 1.19003 0.849051
Ti 10.2997 3.94822 4.22931e-16
Ti 12.7879 5.13825 0.849051
Ti 11.5438 0.405939 3.39621
Ti 11.5438 3.16414 2.54715
Ti 14.0321 4.35416 3.39621
Ti 12.7879 2.38005 4.22931e-16
Ti 15.2762 3.57008 0.849051
Ti 14.0321 1.59596 2.54715
Ti 16.5204 2.78599 3.39621
Ti 15.2762 0.811878 4.22932e-16
Ti 17.7645 2.0019 0.849051
Ti 17.7645 4.7601 7.08695e-16
Ti 16.5204 0.0277921 2.54715
Ti 19.0086 1.21782 3.39621
Ti 19.0086 3.97601 2.54715
Ti 21.4969 5.16604 3.39621
Ti 20.2528 0.433731 0.849051
Ti 20.2528 3.19193 7.08696e-16
Ti 22.741 4.38195 0.849051
Ti 21.4969 2.40784 2.54715
Ti 24.0357 3.59787 3.39621
Ti 22.741 1.62376 7.08696e-16
Ti 24.0357 0.83967 2.54715
Ti 6.46827 1.97411 3.39621
Ti 6.46827 4.73231 2.54715
Ti 5.22413 1.19003 0.849051
Ti 5.22413 3.94822 -1.48601e-16
Ti 2.73586 5.13825 0.849051
Ti 3.98 0.405939 3.39621
Ti 3.98 3.16414 2.54715
Ti 1.49173 4.35416 3.39621
Ti 2.73586 2.38005 -1.48601e-16
Ti 0.247593 3.57008 0.849051
Ti 1.49173 1.59596 2.54715
Ti 31.551 2.78599 3.39621
Ti 0.247593 0.811878 -1.48599e-16
Ti 30.3068 2.0019 0.849051
Ti 30.3068 4.7601 7.08695e-16
Ti 31.551 0.0277921 2.54715
Ti 29.0627 1.21782 3.39621
Ti 29.0627 3.97601 2.54715
Ti 26.5744 5.16604 3.39621
Ti 27.8186 0.433731 0.849051
Ti 27.8186 3.19193 7.08696e-16
Ti 25.3303 4.38195 0.849051
Ti 26.5744 2.40784 2.54715
Ti 25.3303 1.62376 7.08697e-16
52
Model 2
Ti 7.76191 2.7582 0.849051
Ti 9.05554 1.97411 3.39621
Ti 9.05554 4.73231 2.54715
Ti 7.76191 -7.6e-11 -4.34363e-16
Ti 10.2997 1.19003 0.849051
Ti 10.2997 3.94822 4.22931e-16
Ti 12.7879 5.13825 0.849051
Ti 11.5438 0.405939 3.39621
Ti 11.5438 3.16414 2.54715
Ti 14.0321 4.35416 3.39621
Ti 12.7879 2.38005 4.22931e-16
Ti 15.2762 3.57008 0.849051
Ti 14.0321 1.59596 2.54715
Ti 16.5204 2.78599 3.39621
Ti 15.2762 0.811878 4.22932e-16
Ti 17.7645 2.0019 0.849051
Ti 17.7645 4.7601 7.08695e-16
Ti 16.5204 0.0277921 2.54715
Ti 19.0086 1.21782 3.39621
Ti 19.0086 3.97601 2.54715
Ti 21.4969 5.16604 3.39621
Ti 20.2528 0.433731 0.849051
Ti 20.2528 3.19193 7.08696e-16
Ti 22.741 4.38195 0.849051
Ti 21.4969 2.40784 2.54715
Ti 24.0357 3.59787 3.39621
Ti 22.741 1.62376 7.08696e-16
Ti 24.0357 0.83967 2.54715
Ti 6.46827 1.97411 3.39621
Ti 6.46827 4.73231 2.54715
Ti 5.22413 1.19003 0.849051
Ti 5.22413 3.94822 -1.48601e-16
Ti 2.73586 5.13825 0.849051
Ti 3.98 0.405939 3.39621
Ti 3.98 3.16414 2.54715
Ti 1.49173 4.35416 3.39621
Ti 2.73586 2.38005 -1.48601e-16
Ti 0.247593 3.57008 0.849051
Ti 1.49173 1.59596 2.54715
Ti 31.551 2.78599 3.39621
Ti 0.247593 0.811878 -1.48599e-16
Ti 30.3068 2.0019 0.849051
Ti 30.3068 4.7601 7.08695e-16
Ti 31.551 0.0277921 2.54715
Ti 29.0627 1.21782 3.39621
Ti 29.0627 3.97601 2.54715
Ti 26.5744 5.16604 3.39621
Ti 27.8186 0.433731 0.849051
Ti 27.8186 3.19193 7.08696e-16
Ti 25.3303 4.38195 0.849051
Ti 26.5744 2.40784 2.54715
Ti 25.3303 1.62376 7.08697e-16
