52
Model 1
Ti 7.76991 2.7582 0.849051
Ti 8.86354 1.97411 3.39621
Ti 8.86354 4.73231 2.54715
Ti 7.76991 -7.6e-11 -4.34363e-16
Ti 10.1077 1.19003 0.849051
Ti 10.1077 3.94822 4.22931e-16
Ti 12.5959 5.13825 0.849051
Ti 11.3518 0.405939 3.39621
Ti 11.3518 3.16414 2.54715
Ti 13.8401 4.35416 3.39621
Ti 12.5959 2.38005 4.22929e-16
Ti 15.0842 3.57008 0.849051
Ti 13.8401 1.59596 2.54715
Ti 16.3284 2.78599 3.39621
Ti 15.0842 0.811878 4.22932e-16
Ti 17.5725 2.0019 0.849051
Ti 17.5725 4.7601 7.08698e-16
Ti 16.3284 0.0277921 2.54715
Ti 18.8166 1.21782 3.39621
Ti 18.8166 3.97601 2.54715
Ti 21.3049 5.16604 3.39621
Ti 20.0608 0.433731 0.849051
Ti 20.0608 3.19193 7.08696e-16
Ti 22.549 4.38195 0.849051
Ti 21.3049 2.40784 2.54715
Ti 23.6437 3.59787 3.39621
Ti 22.549 1.62376 7.08697e-16
Ti 23.6437 0.83967 2.54715
Ti 6.67627 1.97411 3.39621
Ti 6.67627 4.73231 2.54715
Ti 5.43213 1.19003 0.849051
Ti 5.43213 3.94822 -1.48599e-16
Ti 2.94386 5.13825 0.849051
Ti 4.188 0.405939 3.39621
Ti 4.188 3.16414 2.54715
Ti 1.69973 4.35416 3.39621
Ti 2.94386 2.38005 -1.486e-16
Ti 0.455593 3.57008 0.849051
Ti 1.69973 1.59596 2.54715
Ti 30.959 2.78599 3.39621
Ti 0.455593 0.811878 -1.48599e-16
Ti 29.7148 2.0019 0.849051
Ti 29.7148 4.7601 7.08696e-16
Ti 30.959 0.0277921 2.54715
Ti 28.4707 1.21782 3.39621
Ti 28.4707 3.97601 2.54715
Ti 25.9824 5.16604 3.39621
Ti 27.2266 0.433731 0.849051
Ti 27.2266 3.19193 7.08698e-16
Ti 24.7383 4.38195 0.849051
Ti 25.9824 2.40784 2.54715
Ti 24.7383 1.62376 7.08697e-16
52
Model 2
Ti 7.76991 2.7582 0.849051
Ti 8.86354 1.97411 3.39621
Ti 8.86354 4.73231 2.54715
Ti 7.76991 -7.6e-11 -4.34363e-16
Ti 10.1077 1.19003 0.849051
Ti 10.1077 3.94822 4.22931e-16
Ti 12.5959 5.13825 0.849051
Ti 11.3518 0.405939 3.39621
Ti 11.3518 3.16414 2.54715
Ti 13.8401 4.35416 3.39621
Ti 12.5959 2.38005 4.22929e-16
Ti 15.0842 3.57008 0.849051
Ti 13.8401 1.59596 2.54715
Ti 16.3284 2.78599 3.39621
Ti 15.0842 0.811878 4.22932e-16
Ti 17.5725 2.0019 0.849051
Ti 17.5725 4.7601 7.08698e-16
Ti 16.3284 0.0277921 2.54715
Ti 18.8166 1.21782 3.39621
Ti 18.8166 3.97601 2.54715
Ti 21.3049 5.16604 3.39621
Ti 20.0608 0.433731 0.849051
Ti 20.0608 3.19193 7.08696e-16
Ti 22.549 4.38195 0.849051
Ti 21.3049 2.40784 2.54715
Ti 23.6437 3.59787 3.39621
Ti 22.549 1.62376 7.08697e-16
Ti 23.6437 0.83967 2.54715
Ti 6.67627 1.97411 3.39621
Ti 6.67627 4.73231 2.54715
Ti 5.43213 1.19003 0.849051
Ti 5.43213 3.94822 -1.48599e-16
Ti 2.94386 5.13825 0.849051
Ti 4.188 0.405939 3.39621
Ti 4.188 3.16414 2.54715
Ti 1.69973 4.35416 3.39621
Ti 2.94386 2.38005 -1.486e-16
Ti 0.455593 3.57008 0.849051
Ti 1.69973 1.59596 2.54715
Ti 30.959 2.78599 3.39621
Ti 0.455593 0.811878 -1.48599e-16
Ti 29.7148 2.0019 0.849051
Ti 29.7148 4.7601 7.08696e-16
Ti 30.959 0.0277921 2.54715
Ti 28.4707 1.21782 3.39621
Ti 28.4707 3.97601 2.54715
Ti 25.9824 5.16604 3.39621
Ti 27.2266 0.433731 0.849051
Ti 27.2266 3.19193 7.08698e-16
Ti 24.7383 4.38195 0.849051
Ti 25.9824 2.40784 2.54715
Ti 24.7383 1.62376 7.08697e-16
