52
Model 1
Ti 7.75791 2.7582 0.849051
Ti 9.15154 1.97411 3.39621
Ti 9.15154 4.73231 2.54715
Ti 7.75791 -7.6e-11 -4.34363e-16
Ti 10.3957 1.19003 0.849051
Ti 10.3957 3.94822 4.22932e-16
Ti 12.8839 5.13825 0.849051
Ti 11.6398 0.405939 3.39621
Ti 11.6398 3.16414 2.54715
Ti 14.1281 4.35416 3.39621
Ti 12.8839 2.38005 4.2293e-16
Ti 15.3722 3.57008 0.849051
Ti 14.1281 1.59596 2.54715
Ti 16.6164 2.78599 3.39621
Ti 15.3722 0.811878 4.22932e-16
Ti 17.8605 2.0019 0.849051
Ti 17.8605 4.7601 7.08694e-16
Ti 16.6164 0.0277921 2.54715
Ti 19.1046 1.21782 3.39621
Ti 19.1046 3.97601 2.54715
Ti 21.5929 5.16604 3.39621
Ti 20.3488 0.433731 0.849051
Ti 20.3488 3.19193 7.08697e-16
Ti 22.837 4.38195 0.849051
Ti 21.5929 2.40784 2.54715
Ti 24.2317 3.59787 3.39621
Ti 22.837 1.62376 7.08697e-16
Ti 24.2317 0.83967 2.54715
Ti 6.36427 1.97411 3.39621
Ti 6.36427 4.73231 2.54715
Ti 5.12013 1.19003 0.849051
Ti 5.12013 3.94822 -1.48601e-16
Ti 2.63186 5.13825 0.849051
Ti 3.876 0.405939 3.39621
Ti 3.876 3.16414 2.54715
Ti 1.38773 4.35416 3.39621
Ti 2.63186 2.38005 -1.486e-16
Ti 0.143593 3.57008 0.849051
Ti 1.38773 1.59596 2.54715
Ti 31.847 2.78599 3.39621
Ti 0.143593 0.811878 -1.48598e-16
Ti 30.6028 2.0019 0.849051
Ti 30.6028 4.7601 7.08693e-16
Ti 31.847 0.0277921 2.54715
Ti 29.3587 1.21782 3.39621
Ti 29.3587 3.97601 2.54715
Ti 26.8704 5.16604 3.39621
Ti 28.1146 0.433731 0.849051
Ti 28.1146 3.19193 7.08699e-16
Ti 25.6263 4.38195 0.849051
Ti 26.8704 2.40784 2.54715
Ti 25.6263 1.62376 7.08697e-16
52
Model 2
Ti 7.75791 2.7582 0.849051
Ti 9.15154 1.97411 3.39621
Ti 9.15154 4.73231 2.54715
Ti 7.75791 -7.6e-11 -4.34363e-16
Ti 10.3957 1.19003 0.849051
Ti 10.3957 3.94822 4.22932e-16
Ti 12.8839 5.13825 0.849051
Ti 11.6398 0.405939 3.39621
Ti 11.6398 3.16414 2.54715
Ti 14.1281 4.35416 3.39621
Ti 12.8839 2.38005 4.2293e-16
Ti 15.3722 3.57008 0.849051
Ti 14.1281 1.59596 2.54715
Ti 16.6164 2.78599 3.39621
Ti 15.3722 0.811878 4.22932e-16
Ti 17.8605 2.0019 0.849051
Ti 17.8605 4.7601 7.08694e-16
Ti 16.6164 0.0277921 2.54715
Ti 19.1046 1.21782 3.39621
Ti 19.1046 3.97601 2.54715
Ti 21.5929 5.16604 3.39621
Ti 20.3488 0.433731 0.849051
Ti 20.3488 3.19193 7.08697e-16
Ti 22.837 4.38195 0.849051
Ti 21.5929 2.40784 2.54715
Ti 24.2317 3.59787 3.39621
Ti 22.837 1.62376 7.08697e-16
Ti 24.2317 0.83967 2.54715
Ti 6.36427 1.97411 3.39621
Ti 6.36427 4.73231 2.54715
Ti 5.12013 1.19003 0.849051
Ti 5.12013 3.94822 -1.48601e-16
Ti 2.63186 5.13825 0.849051
Ti 3.876 0.405939 3.39621
Ti 3.876 3.16414 2.54715
Ti 1.38773 4.35416 3.39621
Ti 2.63186 2.38005 -1.486e-16
Ti 0.143593 3.57008 0.849051
Ti 1.38773 1.59596 2.54715
Ti 31.847 2.78599 3.39621
Ti 0.143593 0.811878 -1.48598e-16
Ti 30.6028 2.0019 0.849051
Ti 30.6028 4.7601 7.08693e-16
Ti 31.847 0.0277921 2.54715
Ti 29.3587 1.21782 3.39621
Ti 29.3587 3.97601 2.54715
Ti 26.8704 5.16604 3.39621
Ti 28.1146 0.433731 0.849051
Ti 28.1146 3.19193 7.08699e-16
Ti 25.6263 4.38195 0.849051
Ti 26.8704 2.40784 2.54715
Ti 25.6263 1.62376 7.08697e-16
