52
Model 1
Ti 6.69278 6.66049 2.3284
Ti 5.6717 1.66512 2.3284
Ti 6.37233 4.99537 0
Ti 7.65414 3.88529 2.3284
Ti 8.29505 7.21553 0
Ti 9.57686 6.10545 2.3284
Ti 5.6717 -7.8e-11 0
Ti 7.33369 2.22016 0
Ti 8.6155 1.11008 2.3284
Ti 9.25641 4.44033 0
Ti 10.5382 3.33024 2.3284
Ti 11.1791 6.66049 0
Ti 12.4609 5.55041 2.3284
Ti 10.2178 1.66512 0
Ti 11.4996 0.555041 2.3284
Ti 12.1405 3.88529 0
Ti 13.4223 2.7752 2.3284
Ti 14.0632 6.10545 0
Ti 15.345 4.99537 2.3284
Ti 17.2677 7.21553 2.3284
Ti 13.1018 1.11008 0
Ti 14.3837 2.20022e-11 2.3284
Ti 15.0246 3.33024 0
Ti 16.3064 2.22016 2.3284
Ti 16.9473 5.55041 0
Ti 17.9694 4.44033 2.3284
Ti 15.9859 0.555041 0
Ti 17.9694 2.7752 0
Ti 4.65061 6.66049 2.3284
Ti 4.97107 4.99537 0
Ti 3.68926 3.88529 2.3284
Ti 3.04835 7.21553 0
Ti 1.76654 6.10545 2.3284
Ti 4.00971 2.22016 0
Ti 2.7279 1.11008 2.3284
Ti 2.08699 4.44033 0
Ti 0.805178 3.33024 2.3284
Ti 0.164272 6.66049 0
Ti 23.4778 5.55041 2.3284
Ti 1.12563 1.66512 0
Ti 24.4392 0.555041 2.3284
Ti 23.7982 3.88529 0
Ti 22.5164 2.7752 2.3284
Ti 21.8755 6.10545 0
Ti 20.5937 4.99537 2.3284
Ti 18.671 7.21553 2.3284
Ti 22.8369 1.11008 0
Ti 21.5551 2.20022e-11 2.3284
Ti 20.9142 3.33024 0
Ti 19.6324 2.22016 2.3284
Ti 18.9915 5.55041 0
Ti 19.9528 0.555041 0
52
Model 2
Ti 6.69278 6.66049 2.3284
Ti 5.6717 1.66512 2.3284
Ti 6.37233 4.99537 0
Ti 7.65414 3.88529 2.3284
Ti 8.29505 7.21553 0
Ti 9.57686 6.10545 2.3284
Ti 5.6717 -7.8e-11 0
Ti 7.33369 2.22016 0
Ti 8.6155 1.11008 2.3284
Ti 9.25641 4.44033 0
Ti 10.5382 3.33024 2.3284
Ti 11.1791 6.66049 0
Ti 12.4609 5.55041 2.3284
Ti 10.2178 1.66512 0
Ti 11.4996 0.555041 2.3284
Ti 12.1405 3.88529 0
Ti 13.4223 2.7752 2.3284
Ti 14.0632 6.10545 0
Ti 15.345 4.99537 2.3284
Ti 17.2677 7.21553 2.3284
Ti 13.1018 1.11008 0
Ti 14.3837 2.20022e-11 2.3284
Ti 15.0246 3.33024 0
Ti 16.3064 2.22016 2.3284
Ti 16.9473 5.55041 0
Ti 17.9694 4.44033 2.3284
Ti 15.9859 0.555041 0
Ti 17.9694 2.7752 0
Ti 4.65061 6.66049 2.3284
Ti 4.97107 4.99537 0
Ti 3.68926 3.88529 2.3284
Ti 3.04835 7.21553 0
Ti 1.76654 6.10545 2.3284
Ti 4.00971 2.22016 0
Ti 2.7279 1.11008 2.3284
Ti 2.08699 4.44033 0
Ti 0.805178 3.33024 2.3284
Ti 0.164272 6.66049 0
Ti 23.4778 5.55041 2.3284
Ti 1.12563 1.66512 0
Ti 24.4392 0.555041 2.3284
Ti 23.7982 3.88529 0
Ti 22.5164 2.7752 2.3284
Ti 21.8755 6.10545 0
Ti 20.5937 4.99537 2.3284
Ti 18.671 7.21553 2.3284
Ti 22.8369 1.11008 0
Ti 21.5551 2.20022e-11 2.3284
Ti 20.9142 3.33024 0
Ti 19.6324 2.22016 2.3284
Ti 18.9915 5.55041 0
Ti 19.9528 0.555041 0
