52
Model 1
Ti 6.80278 6.66049 2.3284
Ti 5.6567 1.66512 2.3284
Ti 6.48233 4.99537 0
Ti 7.76414 3.88529 2.3284
Ti 8.40505 7.21553 0
Ti 9.68686 6.10545 2.3284
Ti 5.6567 -7.8e-11 0
Ti 7.44369 2.22016 0
Ti 8.7255 1.11008 2.3284
Ti 9.36641 4.44033 0
Ti 10.6482 3.33024 2.3284
Ti 11.2891 6.66049 0
Ti 12.5709 5.55041 2.3284
Ti 10.3278 1.66512 0
Ti 11.6096 0.555041 2.3284
Ti 12.2505 3.88529 0
Ti 13.5323 2.7752 2.3284
Ti 14.1732 6.10545 0
Ti 15.455 4.99537 2.3284
Ti 17.3777 7.21553 2.3284
Ti 13.2118 1.11008 0
Ti 14.4937 2.20022e-11 2.3284
Ti 15.1346 3.33024 0
Ti 16.4164 2.22016 2.3284
Ti 17.0573 5.55041 0
Ti 18.2044 4.44033 2.3284
Ti 16.0959 0.555041 0
Ti 18.2044 2.7752 0
Ti 4.51061 6.66049 2.3284
Ti 4.83107 4.99537 0
Ti 3.54926 3.88529 2.3284
Ti 2.90835 7.21553 0
Ti 1.62654 6.10545 2.3284
Ti 3.86971 2.22016 0
Ti 2.5879 1.11008 2.3284
Ti 1.94699 4.44033 0
Ti 0.665178 3.33024 2.3284
Ti 0.0242725 6.66049 0
Ti 23.8378 5.55041 2.3284
Ti 0.985631 1.66512 0
Ti 24.7992 0.555041 2.3284
Ti 24.1582 3.88529 0
Ti 22.8764 2.7752 2.3284
Ti 22.2355 6.10545 0
Ti 20.9537 4.99537 2.3284
Ti 19.031 7.21553 2.3284
Ti 23.1969 1.11008 0
Ti 21.9151 2.20022e-11 2.3284
Ti 21.2742 3.33024 0
Ti 19.9924 2.22016 2.3284
Ti 19.3515 5.55041 0
Ti 20.3128 0.555041 0
52
Model 2
Ti 6.80278 6.66049 2.3284
Ti 5.6567 1.66512 2.3284
Ti 6.48233 4.99537 0
Ti 7.76414 3.88529 2.3284
Ti 8.40505 7.21553 0
Ti 9.68686 6.10545 2.3284
Ti 5.6567 -7.8e-11 0
Ti 7.44369 2.22016 0
Ti 8.7255 1.11008 2.3284
Ti 9.36641 4.44033 0
Ti 10.6482 3.33024 2.3284
Ti 11.2891 6.66049 0
Ti 12.5709 5.55041 2.3284
Ti 10.3278 1.66512 0
Ti 11.6096 0.555041 2.3284
Ti 12.2505 3.88529 0
Ti 13.5323 2.7752 2.3284
Ti 14.1732 6.10545 0
Ti 15.455 4.99537 2.3284
Ti 17.3777 7.21553 2.3284
Ti 13.2118 1.11008 0
Ti 14.4937 2.20022e-11 2.3284
Ti 15.1346 3.33024 0
Ti 16.4164 2.22016 2.3284
Ti 17.0573 5.55041 0
Ti 18.2044 4.44033 2.3284
Ti 16.0959 0.555041 0
Ti 18.2044 2.7752 0
Ti 4.51061 6.66049 2.3284
Ti 4.83107 4.99537 0
Ti 3.54926 3.88529 2.3284
Ti 2.90835 7.21553 0
Ti 1.62654 6.10545 2.3284
Ti 3.86971 2.22016 0
Ti 2.5879 1.11008 2.3284
Ti 1.94699 4.44033 0
Ti 0.665178 3.33024 2.3284
Ti 0.0242725 6.66049 0
Ti 23.8378 5.55041 2.3284
Ti 0.985631 1.66512 0
Ti 24.7992 0.555041 2.3284
Ti 24.1582 3.88529 0
Ti 22.8764 2.7752 2.3284
Ti 22.2355 6.10545 0
Ti 20.9537 4.99537 2.3284
Ti 19.031 7.21553 2.3284
Ti 23.1969 1.11008 0
Ti 21.9151 2.20022e-11 2.3284
Ti 21.2742 3.33024 0
Ti 19.9924 2.22016 2.3284
Ti 19.3515 5.55041 0
Ti 20.3128 0.555041 0
