96
Model 1
Ti 8.62979 5.35275 7.358
Ti 8.62979 5.35275 4.4148
Ti 8.62979 5.35275 1.4716
Ti 7.34611 0.321916 5.8864
Ti 7.34611 3.15069 5.8864
Ti 10.3508 3.47261 5.8864
Ti 7.34611 0.321916 2.9432
Ti 7.34611 3.15069 2.9432
Ti 10.3508 3.47261 2.9432
Ti 7.34611 0.321916 -5.85743e-16
Ti 7.34611 3.15069 -4.42877e-16
Ti 10.3508 3.47261 5.57176e-16
Ti 9.20346 1.27055 7.358
Ti 12.0718 1.59246 7.358
Ti 12.6455 4.42124 7.358
Ti 15.5138 4.74315 7.358
Ti 9.20346 1.27055 4.4148
Ti 12.0718 1.59246 4.4148
Ti 12.6455 4.42124 4.4148
Ti 15.5138 4.74315 4.4148
Ti 9.20346 1.27055 1.4716
Ti 12.0718 1.59246 1.4716
Ti 12.6455 4.42124 1.4716
Ti 15.5138 4.74315 1.4716
Ti 10.9245 6.30138 5.8864
Ti 13.7928 6.6233 5.8864
Ti 14.3665 2.54109 5.8864
Ti 17.2348 2.86301 5.8864
Ti 10.9245 6.30138 2.9432
Ti 13.7928 6.6233 2.9432
Ti 14.3665 2.54109 2.9432
Ti 17.2348 2.86301 2.9432
Ti 10.9245 6.30138 7.00035e-16
Ti 13.7928 6.6233 8.42899e-16
Ti 14.3665 2.54109 7.0004e-16
Ti 17.2348 2.86301 8.42901e-16
Ti 16.0875 0.660947 7.358
Ti 18.9558 0.982863 7.358
Ti 19.5295 3.81164 7.358
Ti 16.0875 0.660947 4.4148
Ti 18.9558 0.982863 4.4148
Ti 19.5295 3.81164 4.4148
Ti 16.0875 0.660947 1.4716
Ti 18.9558 0.982863 1.4716
Ti 19.5295 3.81164 1.4716
Ti 17.8085 5.69178 5.8864
Ti 20.8142 6.0137 5.8864
Ti 20.8142 1.93149 5.8864
Ti 17.8085 5.69178 2.9432
Ti 20.8142 6.0137 2.9432
Ti 20.8142 1.93149 2.9432
Ti 17.8085 5.69178 9.85764e-16
Ti 20.8142 6.0137 1.12863e-15
Ti 20.8142 1.93149 9.85765e-16
Ti 6.06244 5.35275 7.358
Ti 6.06244 5.35275 4.4148
Ti 6.06244 5.35275 1.4716
Ti 4.34142 3.47261 5.8864
Ti 4.34142 3.47261 2.9432
Ti 4.34142 3.47261 -3.0001e-16
Ti 5.48876 1.27055 7.358
Ti 2.62041 1.59246 7.358
Ti 2.04674 4.42124 7.358
Ti 26.1146 4.74315 7.358
Ti 5.48876 1.27055 4.4148
Ti 2.62041 1.59246 4.4148
Ti 2.04674 4.42124 4.4148
Ti 26.1146 4.74315 4.4148
Ti 5.48876 1.27055 1.4716
Ti 2.62041 1.59246 1.4716
Ti 2.04674 4.42124 1.4716
Ti 26.1146 4.74315 1.4716
Ti 3.76775 6.30138 5.8864
Ti 0.899404 6.6233 5.8864
Ti 0.325734 2.54109 5.8864
Ti 24.3935 2.86301 5.8864
Ti 3.76775 6.30138 2.9432
Ti 0.899404 6.6233 2.9432
Ti 0.325734 2.54109 2.9432
Ti 24.3935 2.86301 2.9432
Ti 3.76775 6.30138 -1.5715e-16
Ti 0.899404 6.6233 -1.4286e-17
Ti 0.325734 2.54109 -1.57147e-16
Ti 24.3935 2.86301 8.42904e-16
Ti 25.5409 0.660947 7.358
Ti 22.6725 0.982863 7.358
Ti 22.0989 3.81164 7.358
Ti 25.5409 0.660947 4.4148
Ti 22.6725 0.982863 4.4148
Ti 22.0989 3.81164 4.4148
Ti 25.5409 0.660947 1.4716
Ti 22.6725 0.982863 1.4716
Ti 22.0989 3.81164 1.4716
Ti 23.8199 5.69178 5.8864
Ti 23.8199 5.69178 2.9432
Ti 23.8199 5.69178 9.85764e-16
