169
Model 1
Co -1.02192 -9.68784 -7.70663
Co -1.02192 -8.47686 -10.2755
Co 0.986268 -10.2933 -11.1318
Co -1.02192 -9.68784 1.71258
Co -1.02192 -8.47686 -0.856292
Co -1.02192 -7.26588 -3.42517
Co -1.02192 -6.0549 -5.99405
Co -1.02192 -4.84392 -8.56292
Co -1.02192 -3.63294 -11.1318
Co 0.986268 -10.2933 -1.71258
Co -1.02192 -9.68784 -2.99702
Co 0.986268 -9.08235 -4.28146
Co -1.02192 -8.47686 -5.5659
Co 0.986268 -7.87137 -6.85034
Co -1.02192 -7.26588 -8.13478
Co 0.986268 -6.66039 -9.41921
Co -1.02192 -6.0549 -10.7037
Co 0.986268 -10.2933 -6.42219
Co 0.986268 -9.08235 -8.99107
Co -1.02192 -9.68784 11.1318
Co -1.02192 -8.47686 8.56292
Co -1.02192 -7.26588 5.99405
Co -1.02192 -6.0549 3.42517
Co -1.02192 -4.84392 0.856292
Co -1.02192 -3.63294 -1.71258
Co -1.02192 -2.42196 -4.28146
Co -1.02192 -1.21098 -6.85034
Co -1.02192 3.55271e-15 -9.41921
Co 0.986268 -10.2933 7.70663
Co -1.02192 -9.68784 6.42219
Co 0.986268 -9.08235 5.13775
Co -1.02192 -8.47686 3.85331
Co 0.986268 -7.87137 2.56888
Co -1.02192 -7.26588 1.28444
Co 0.986268 -6.66039 -7.10543e-15
Co -1.02192 -6.0549 -1.28444
Co 0.986268 -5.44941 -2.56888
Co -1.02192 -4.84392 -3.85331
Co 0.986268 -4.23843 -5.13775
Co -1.02192 -3.63294 -6.42219
Co 0.986268 -3.02745 -7.70663
Co -1.02192 -2.42196 -8.99107
Co 0.986268 -1.81647 -10.2755
Co 0.986268 -10.2933 2.99702
Co 0.986268 -9.08235 0.428146
Co 0.986268 -7.87137 -2.14073
Co 0.986268 -6.66039 -4.70961
Co 0.986268 -5.44941 -7.27848
Co 0.986268 -4.23843 -9.84736
Co -1.02192 -4.84392 10.2755
Co -1.02192 -3.63294 7.70663
Co -1.02192 -2.42196 5.13775
Co -1.02192 -1.21098 2.56888
Co -1.02192 7.10543e-15 -7.10543e-15
Co -1.02192 1.21098 -2.56888
Co -1.02192 2.42196 -5.13775
Co -1.02192 3.63294 -7.70663
Co -1.02192 4.84392 -10.2755
Co -1.02192 -7.26588 10.7037
Co 0.986268 -6.66039 9.41921
Co -1.02192 -6.0549 8.13478
Co 0.986268 -5.44941 6.85034
Co -1.02192 -4.84392 5.5659
Co 0.986268 -4.23843 4.28146
Co -1.02192 -3.63294 2.99702
Co 0.986268 -3.02745 1.71258
Co -1.02192 -2.42196 0.428146
Co 0.986268 -1.81647 -0.856292
Co -1.02192 -1.21098 -2.14073
Co 0.986268 -0.60549 -3.42517
Co -1.02192 7.10543e-15 -4.70961
Co 0.986268 0.60549 -5.99405
Co -1.02192 1.21098 -7.27848
Co 0.986268 1.81647 -8.56292
Co -1.02192 2.42196 -9.84736
Co 0.986268 3.02745 -11.1318
Co 0.986268 -9.08235 9.84736
Co 0.986268 -7.87137 7.27848
Co 0.986268 -6.66039 4.70961
Co 0.986268 -5.44941 2.14073
Co 0.986268 -4.23843 -0.428146
Co 0.986268 -3.02745 -2.99702
Co 0.986268 -1.81647 -5.5659
Co 0.986268 -0.60549 -8.13478
Co 0.986268 0.60549 -10.7037
Co -1.02192 7.10543e-15 9.41921
Co -1.02192 1.21098 6.85034
Co -1.02192 2.42196 4.28146
Co -1.02192 3.63294 1.71258
Co -1.02192 4.84392 -0.856292
Co -1.02192 6.0549 -3.42517
Co -1.02192 7.26588 -5.99405
Co -1.02192 8.47686 -8.56292
Co -1.02192 9.68784 -11.1318
Co 0.986268 -3.02745 11.1318
Co -1.02192 -2.42196 9.84736
Co 0.986268 -1.81647 8.56292
Co -1.02192 -1.21098 7.27848
Co 0.986268 -0.60549 5.99405
Co -1.02192 7.10543e-15 4.70961
Co 0.986268 0.60549 3.42517
Co -1.02192 1.21098 2.14073
Co 0.986268 1.81647 0.856292
Co -1.02192 2.42196 -0.428146
Co 0.986268 3.02745 -1.71258
Co -1.02192 3.63294 -2.99702
Co 0.986268 4.23843 -4.28146
Co -1.02192 4.84392 -5.5659
Co 0.986268 5.44941 -6.85034
Co -1.02192 6.0549 -8.13478
Co 0.986268 6.66039 -9.41921
Co -1.02192 7.26588 -10.7037
Co 0.986268 -4.23843 8.99107
Co 0.986268 -3.02745 6.42219
Co 0.986268 -1.81647 3.85331
Co 0.986268 -0.60549 1.28444
Co 0.986268 0.60549 -1.28444
Co 0.986268 1.81647 -3.85331
Co 0.986268 3.02745 -6.42219
Co 0.986268 4.23843 -8.99107
Co -1.02192 3.63294 11.1318
Co -1.02192 4.84392 8.56292
Co -1.02192 6.0549 5.99405
Co -1.02192 7.26588 3.42517
Co -1.02192 8.47686 0.856292
Co -1.02192 9.68784 -1.71258
Co 0.986268 1.81647 10.2755
Co -1.02192 2.42196 8.99107
Co 0.986268 3.02745 7.70663
Co -1.02192 3.63294 6.42219
Co 0.986268 4.23843 5.13775
Co -1.02192 4.84392 3.85331
Co 0.986268 5.44941 2.56888
Co -1.02192 6.0549 1.28444
Co 0.986268 6.66039 -3.55271e-15
Co -1.02192 7.26588 -1.28444
Co 0.986268 7.87137 -2.56888
Co -1.02192 8.47686 -3.85331
Co 0.986268 9.08235 -5.13775
Co -1.02192 9.68784 -6.42219
Co 0.986268 10.2933 -7.70663
Co 0.986268 -0.60549 10.7037
Co 0.986268 0.60549 8.13478
Co 0.986268 1.81647 5.5659
Co 0.986268 3.02745 2.99702
Co 0.986268 4.23843 0.428146
Co 0.986268 5.44941 -2.14073
Co 0.986268 6.66039 -4.70961
Co 0.986268 7.87137 -7.27848
Co 0.986268 9.08235 -9.84736
Co -1.02192 8.47686 10.2755
Co -1.02192 9.68784 7.70663
Co -1.02192 6.0549 10.7037
Co 0.986268 6.66039 9.41921
Co -1.02192 7.26588 8.13478
Co 0.986268 7.87137 6.85034
Co -1.02192 8.47686 5.5659
Co 0.986268 9.08235 4.28146
Co -1.02192 9.68784 2.99702
Co 0.986268 10.2933 1.71258
Co 0.986268 4.23843 9.84736
Co 0.986268 5.44941 7.27848
Co 0.986268 6.66039 4.70961
Co 0.986268 7.87137 2.14073
Co 0.986268 9.08235 -0.428146
Co 0.986268 10.2933 -2.99702
Co 0.986268 10.2933 11.1318
Co 0.986268 9.08235 8.99107
Co 0.986268 10.2933 6.42219
