115
Model 1
Fe -1.70281 8.07132 6.55081
Fe -0.59617 8.37554 4.43131
Fe -1.70281 8.07132 -9.6201
Fe -0.59617 8.37554 -11.7396
Fe -1.50912 7.40296 10.5758
Fe -1.70281 3.81406 8.63489
Fe 0.860846 7.33289 10.4327
W -0.456526 6.27324 8.2681
W -0.385434 4.8737 10.7995
Fe 0.667158 8.00124 6.40768
Fe -0.59617 6.21073 5.49106
Fe -0.59617 4.11829 6.51538
Fe 0.473469 4.41235 4.46674
W -0.748147 6.19307 2.71402
W 1.71975 6.87153 4.09995
Fe -0.24579 7.02866 -3.61872
Fe -1.31543 6.7346 -1.57007
Fe -0.24579 4.93622 -2.59439
W -0.0938132 4.95387 0.182641
Fe -0.42098 7.7021 0.406296
Fe 1.5801 6.80902 1.32291
Fe 1.5801 4.71657 2.34723
W 1.42813 6.79136 -1.45413
Fe -1.50912 7.40296 -5.59509
Fe -1.70281 3.81406 -7.53602
Fe 0.860846 7.33289 -5.73822
W -0.456526 6.27324 -7.90281
W -0.385434 4.8737 -5.37143
Fe 0.667158 8.00124 -9.76324
Fe -0.59617 6.21073 -10.6799
Fe -0.59617 4.11829 -9.65553
Fe 0.473469 4.41235 -11.7042
Fe -1.70281 -0.443197 10.719
W -0.456526 2.01599 10.3522
Fe 0.667158 3.74399 8.49175
Fe -0.59617 1.95347 7.57514
Fe -0.59617 -0.138968 8.59946
Fe 0.473469 0.155089 6.55081
W -0.748147 1.93582 4.7981
W 1.71975 2.61427 6.18402
Fe -0.24579 2.7714 -1.53464
Fe -1.31543 2.47734 0.514004
Fe -0.24579 0.678961 -0.510319
W -0.0938132 0.696617 2.26672
Fe -0.42098 3.44484 2.49037
Fe 1.5801 2.55176 3.40699
Fe 1.5801 0.459318 4.43131
W 1.42813 2.5341 0.62995
Fe -1.50912 3.1457 -3.51101
Fe -1.70281 -0.443197 -5.45195
Fe 0.860846 3.07563 -3.65415
W -0.456526 2.01599 -5.81874
W -0.385434 0.616446 -3.28736
Fe 0.667158 3.74399 -7.67916
Fe -0.59617 1.95347 -8.59578
Fe -0.59617 -0.138968 -7.57145
Fe 0.473469 0.155089 -9.6201
W -0.748147 1.93582 -11.3728
W 1.71975 2.61427 -9.98689
W -0.456526 -2.24127 12.4362
Fe 0.667158 -0.513268 10.5758
Fe -0.59617 -2.30378 9.65921
Fe -0.59617 -4.39622 10.6835
Fe 0.473469 -4.10217 8.63489
W -0.748147 -2.32144 6.88218
W 1.71975 -1.64298 8.2681
Fe -0.24579 -1.48585 0.549433
Fe -1.31543 -1.77991 2.59808
Fe -0.24579 -3.5783 1.57376
W -0.0938132 -3.56064 4.35079
Fe -0.42098 -0.812411 4.57445
Fe 1.5801 -1.7055 5.49106
Fe 1.5801 -3.79794 6.51538
W 1.42813 -1.72315 2.71402
Fe -1.50912 -1.11155 -1.42693
Fe -1.70281 -4.70045 -3.36787
Fe 0.860846 -1.18163 -1.57007
W -0.456526 -2.24127 -3.73466
W -0.385434 -3.64081 -1.20328
Fe 0.667158 -0.513268 -5.59509
Fe -0.59617 -2.30378 -6.5117
Fe -0.59617 -4.39622 -5.48738
Fe 0.473469 -4.10217 -7.53602
W -0.748147 -2.32144 -9.28874
W 1.71975 -1.64298 -7.90281
Fe -0.42098 -0.812411 -11.5965
Fe 1.5801 -1.7055 -10.6799
Fe 1.5801 -3.79794 -9.65553
Fe -0.59617 -6.56104 11.7433
Fe 0.473469 -8.35942 10.719
W -0.748147 -6.5787 8.96625
W 1.71975 -5.90024 10.3522
Fe -0.24579 -5.74311 2.63351
Fe -1.31543 -6.03717 4.68215
Fe -0.24579 -7.83555 3.65783
W -0.0938132 -7.8179 6.43487
Fe -0.42098 -5.06967 6.65852
Fe 1.5801 -5.96275 7.57514
Fe 1.5801 -8.05519 8.59946
W 1.42813 -5.98041 4.7981
Fe -1.50912 -5.36881 0.657141
Fe 0.860846 -5.43888 0.514004
W -0.456526 -6.49852 -1.65059
W -0.385434 -7.89807 0.880795
Fe 0.667158 -4.77052 -3.51101
Fe -0.59617 -6.56104 -4.42762
Fe 0.473469 -8.35942 -5.45195
W -0.748147 -6.5787 -7.20466
W 1.71975 -5.90024 -5.81874
Fe -1.31543 -6.03717 -11.4888
W -0.0938132 -7.8179 -9.73604
Fe -0.42098 -5.06967 -9.51239
Fe 1.5801 -5.96275 -8.59578
Fe 1.5801 -8.05519 -7.57145
W 1.42813 -5.98041 -11.3728
