96
Model 1
Ti 0 0 0
Ti 1.69574 0 2.333
Ti 0 0 4.666
Ti 1.69574 0 6.999
Ti 0 0 9.332
Ti 1.69574 0 11.665
Ti 0 2.9371 0
Ti 1.69574 2.9371 2.333
Ti 0 2.9371 4.666
Ti 1.69574 2.9371 6.999
Ti 0 2.9371 9.332
Ti 1.69574 2.9371 11.665
Ti 0 5.8742 0
Ti 1.69574 5.8742 2.333
Ti 0 5.8742 4.666
Ti 1.69574 5.8742 6.999
Ti 0 5.8742 9.332
Ti 1.69574 5.8742 11.665
Ti 0 8.8113 0
Ti 1.69574 8.8113 2.333
Ti 0 8.8113 4.666
Ti 1.69574 8.8113 6.999
Ti 0 8.8113 9.332
Ti 1.69574 8.8113 11.665
Ti 2.5436 -1.46855 0
Ti 4.23934 -1.46855 2.333
Ti 2.5436 -1.46855 4.666
Ti 4.23934 -1.46855 6.999
Ti 2.5436 -1.46855 9.332
Ti 4.23934 -1.46855 11.665
Ti 2.5436 1.46855 0
Ti 4.23934 1.46855 2.333
Ti 2.5436 1.46855 4.666
Ti 4.23934 1.46855 6.999
Ti 2.5436 1.46855 9.332
Ti 4.23934 1.46855 11.665
Ti 2.5436 4.40565 0
Ti 4.23934 4.40565 2.333
Ti 2.5436 4.40565 4.666
Ti 4.23934 4.40565 6.999
Ti 2.5436 4.40565 9.332
Ti 4.23934 4.40565 11.665
Ti 2.5436 7.34275 0
Ti 4.23934 7.34275 2.333
Ti 2.5436 7.34275 4.666
Ti 4.23934 7.34275 6.999
Ti 2.5436 7.34275 9.332
Ti 4.23934 7.34275 11.665
Ti 5.08721 -2.9371 0
Ti 6.78294 -2.9371 2.333
Ti 5.08721 -2.9371 4.666
Ti 6.78294 -2.9371 6.999
Ti 5.08721 -2.9371 9.332
Ti 6.78294 -2.9371 11.665
Ti 5.08721 0 0
Ti 6.78294 0 2.333
Ti 5.08721 0 4.666
Ti 6.78294 0 6.999
Ti 5.08721 0 9.332
Ti 6.78294 0 11.665
Ti 5.08721 2.9371 0
Ti 6.78294 2.9371 2.333
Ti 5.08721 2.9371 4.666
Ti 6.78294 2.9371 6.999
Ti 5.08721 2.9371 9.332
Ti 6.78294 2.9371 11.665
Ti 5.08721 5.8742 0
Ti 6.78294 5.8742 2.333
Ti 5.08721 5.8742 4.666
Ti 6.78294 5.8742 6.999
Ti 5.08721 5.8742 9.332
Ti 6.78294 5.8742 11.665
Ti 7.63081 -4.40565 0
Ti 9.32655 -4.40565 2.333
Ti 7.63081 -4.40565 4.666
Ti 9.32655 -4.40565 6.999
Ti 7.63081 -4.40565 9.332
Ti 9.32655 -4.40565 11.665
Ti 7.63081 -1.46855 0
Ti 9.32655 -1.46855 2.333
Ti 7.63081 -1.46855 4.666
Ti 9.32655 -1.46855 6.999
Ti 7.63081 -1.46855 9.332
Ti 9.32655 -1.46855 11.665
Ti 7.63081 1.46855 0
Ti 9.32655 1.46855 2.333
Ti 7.63081 1.46855 4.666
Ti 9.32655 1.46855 6.999
Ti 7.63081 1.46855 9.332
Ti 9.32655 1.46855 11.665
Ti 7.63081 4.40565 0
Ti 9.32655 4.40565 2.333
Ti 7.63081 4.40565 4.666
Ti 9.32655 4.40565 6.999
Ti 7.63081 4.40565 9.332
Ti 9.32655 4.40565 11.665
96
Model 2
Ti 0 0 0
Ti 1.69574 0 2.333
Ti 0 0 4.666
Ti 1.69574 0 6.999
Ti 0 0 9.332
Ti 1.69574 0 11.665
Ti 0 2.9371 0
Ti 1.69574 2.9371 2.333
Ti 0 2.9371 4.666
Ti 1.69574 2.9371 6.999
Ti 0 2.9371 9.332
Ti 1.69574 2.9371 11.665
Ti 0 5.8742 0
Ti 1.69574 5.8742 2.333
Ti 0 5.8742 4.666
Ti 1.69574 5.8742 6.999
Ti 0 5.8742 9.332
Ti 1.69574 5.8742 11.665
Ti 0 8.8113 0
Ti 1.69574 8.8113 2.333
Ti 0 8.8113 4.666
Ti 1.69574 8.8113 6.999
Ti 0 8.8113 9.332
Ti 1.69574 8.8113 11.665
Ti 2.5436 -1.46855 0
Ti 4.23934 -1.46855 2.333
Ti 2.5436 -1.46855 4.666
Ti 4.23934 -1.46855 6.999
Ti 2.5436 -1.46855 9.332
Ti 4.23934 -1.46855 11.665
Ti 2.5436 1.46855 0
Ti 4.23934 1.46855 2.333
Ti 2.5436 1.46855 4.666
Ti 4.23934 1.46855 6.999
Ti 2.5436 1.46855 9.332
Ti 4.23934 1.46855 11.665
Ti 2.5436 4.40565 0
Ti 4.23934 4.40565 2.333
Ti 2.5436 4.40565 4.666
Ti 4.23934 4.40565 6.999
Ti 2.5436 4.40565 9.332
Ti 4.23934 4.40565 11.665
Ti 2.5436 7.34275 0
Ti 4.23934 7.34275 2.333
Ti 2.5436 7.34275 4.666
Ti 4.23934 7.34275 6.999
Ti 2.5436 7.34275 9.332
Ti 4.23934 7.34275 11.665
Ti 5.08721 -2.9371 0
Ti 6.78294 -2.9371 2.333
Ti 5.08721 -2.9371 4.666
Ti 6.78294 -2.9371 6.999
Ti 5.08721 -2.9371 9.332
Ti 6.78294 -2.9371 11.665
Ti 5.08721 0 0
Ti 6.78294 0 2.333
Ti 5.08721 0 4.666
Ti 6.78294 0 6.999
Ti 5.08721 0 9.332
Ti 6.78294 0 11.665
Ti 5.08721 2.9371 0
Ti 6.78294 2.9371 2.333
Ti 5.08721 2.9371 4.666
Ti 6.78294 2.9371 6.999
Ti 5.08721 2.9371 9.332
Ti 6.78294 2.9371 11.665
Ti 5.08721 5.8742 0
Ti 6.78294 5.8742 2.333
Ti 5.08721 5.8742 4.666
Ti 6.78294 5.8742 6.999
Ti 5.08721 5.8742 9.332
Ti 6.78294 5.8742 11.665
Ti 7.63081 -4.40565 0
Ti 9.32655 -4.40565 2.333
Ti 7.63081 -4.40565 4.666
Ti 9.32655 -4.40565 6.999
Ti 7.63081 -4.40565 9.332
Ti 9.32655 -4.40565 11.665
Ti 7.63081 -1.46855 0
Ti 9.32655 -1.46855 2.333
Ti 7.63081 -1.46855 4.666
Ti 9.32655 -1.46855 6.999
Ti 7.63081 -1.46855 9.332
Ti 9.32655 -1.46855 11.665
Ti 7.63081 1.46855 0
Ti 9.32655 1.46855 2.333
Ti 7.63081 1.46855 4.666
Ti 9.32655 1.46855 6.999
Ti 7.63081 1.46855 9.332
Ti 9.32655 1.46855 11.665
Ti 7.63081 4.40565 0
Ti 9.32655 4.40565 2.333
Ti 7.63081 4.40565 4.666
Ti 9.32655 4.40565 6.999
Ti 7.63081 4.40565 9.332
Ti 9.32655 4.40565 11.665
