48
Model 1
Ti 1.146 2.27975 4.2336
Ti 1.719 5.13872 4.2336
Ti 4.58399 5.68079 4.2336
Ti 1.146 2.27975 1.4112
Ti 1.719 5.13872 1.4112
Ti 4.58399 5.68079 1.4112
Ti -1.22862e-16 -1.21542e-16 2.8224
Ti 2.86499 0.542073 2.8224
Ti 3.43799 3.40104 2.8224
Ti 6.30299 3.94312 2.8224
Ti 0 0 0
Ti 2.86499 0.542073 1.4806e-16
Ti 3.43799 3.40104 2.9612e-16
Ti 6.30299 3.94312 4.44179e-16
Ti 5.15699 1.66337 4.2336
Ti 8.02199 2.20544 4.2336
Ti 8.59498 5.06441 4.2336
Ti 11.46 5.60649 4.2336
Ti 5.15699 1.66337 1.4112
Ti 8.02199 2.20544 1.4112
Ti 8.59498 5.06441 1.4112
Ti 11.46 5.60649 1.4112
Ti 6.87599 -0.074302 2.8224
Ti 9.74098 0.467771 2.8224
Ti 10.314 3.32674 2.8224
Ti 13.179 3.86881 2.8224
Ti 6.87599 -0.074302 2.9612e-16
Ti 9.74098 0.467771 4.44179e-16
Ti 10.314 3.32674 5.92239e-16
Ti 13.179 3.86881 7.40299e-16
Ti 12.033 1.58907 4.2336
Ti 14.898 2.13114 4.2336
Ti 15.471 4.99011 4.2336
Ti 18.336 5.53219 4.2336
Ti 12.033 1.58907 1.4112
Ti 14.898 2.13114 1.4112
Ti 15.471 4.99011 1.4112
Ti 18.336 5.53219 1.4112
Ti 13.752 -0.148604 2.8224
Ti 16.617 0.393469 2.8224
Ti 17.19 3.25244 2.8224
Ti 20.055 3.79451 2.8224
Ti 13.752 -0.148604 5.92239e-16
Ti 16.617 0.393469 7.40299e-16
Ti 17.19 3.25244 8.88359e-16
Ti 20.055 3.79451 1.03642e-15
Ti 18.909 1.51477 4.2336
Ti 18.909 1.51477 1.4112
48
Model 2
Ti 1.146 2.27975 4.2336
Ti 1.719 5.13872 4.2336
Ti 4.58399 5.68079 4.2336
Ti 1.146 2.27975 1.4112
Ti 1.719 5.13872 1.4112
Ti 4.58399 5.68079 1.4112
Ti -1.22862e-16 -1.21542e-16 2.8224
Ti 2.86499 0.542073 2.8224
Ti 3.43799 3.40104 2.8224
Ti 6.30299 3.94312 2.8224
Ti 0 0 0
Ti 2.86499 0.542073 1.4806e-16
Ti 3.43799 3.40104 2.9612e-16
Ti 6.30299 3.94312 4.44179e-16
Ti 5.15699 1.66337 4.2336
Ti 8.02199 2.20544 4.2336
Ti 8.59498 5.06441 4.2336
Ti 11.46 5.60649 4.2336
Ti 5.15699 1.66337 1.4112
Ti 8.02199 2.20544 1.4112
Ti 8.59498 5.06441 1.4112
Ti 11.46 5.60649 1.4112
Ti 6.87599 -0.074302 2.8224
Ti 9.74098 0.467771 2.8224
Ti 10.314 3.32674 2.8224
Ti 13.179 3.86881 2.8224
Ti 6.87599 -0.074302 2.9612e-16
Ti 9.74098 0.467771 4.44179e-16
Ti 10.314 3.32674 5.92239e-16
Ti 13.179 3.86881 7.40299e-16
Ti 12.033 1.58907 4.2336
Ti 14.898 2.13114 4.2336
Ti 15.471 4.99011 4.2336
Ti 18.336 5.53219 4.2336
Ti 12.033 1.58907 1.4112
Ti 14.898 2.13114 1.4112
Ti 15.471 4.99011 1.4112
Ti 18.336 5.53219 1.4112
Ti 13.752 -0.148604 2.8224
Ti 16.617 0.393469 2.8224
Ti 17.19 3.25244 2.8224
Ti 20.055 3.79451 2.8224
Ti 13.752 -0.148604 5.92239e-16
Ti 16.617 0.393469 7.40299e-16
Ti 17.19 3.25244 8.88359e-16
Ti 20.055 3.79451 1.03642e-15
Ti 18.909 1.51477 4.2336
Ti 18.909 1.51477 1.4112
