48
Model 1
Ti 1.16142 2.28014 4.3512
Ti 1.74212 5.16361 4.3512
Ti 4.64566 5.63379 4.3512
Ti 1.16142 2.28014 1.4504
Ti 1.74212 5.16361 1.4504
Ti 4.64566 5.63379 1.4504
Ti -1.27974e-16 -1.23177e-16 2.9008
Ti 2.90354 0.470176 2.9008
Ti 3.48425 3.35364 2.9008
Ti 6.38779 3.82382 2.9008
Ti 0 0 0
Ti 2.90354 0.470176 1.4806e-16
Ti 3.48425 3.35364 2.9612e-16
Ti 6.38779 3.82382 4.44179e-16
Ti 5.22637 1.54367 4.3512
Ti 8.12991 2.01385 4.3512
Ti 8.71062 4.89732 4.3512
Ti 11.6142 5.36749 4.3512
Ti 5.22637 1.54367 1.4504
Ti 8.12991 2.01385 1.4504
Ti 8.71062 4.89732 1.4504
Ti 11.6142 5.36749 1.4504
Ti 6.96849 -0.266294 2.9008
Ti 9.87203 0.203881 2.9008
Ti 10.4527 3.08735 2.9008
Ti 13.3563 3.55752 2.9008
Ti 6.96849 -0.266294 2.9612e-16
Ti 9.87203 0.203881 4.44179e-16
Ti 10.4527 3.08735 5.92239e-16
Ti 13.3563 3.55752 7.40299e-16
Ti 12.1949 1.27738 4.3512
Ti 15.0984 1.74756 4.3512
Ti 15.6791 4.63102 4.3512
Ti 18.5827 5.1012 4.3512
Ti 12.1949 1.27738 1.4504
Ti 15.0984 1.74756 1.4504
Ti 15.6791 4.63102 1.4504
Ti 18.5827 5.1012 1.4504
Ti 13.937 -0.532589 2.9008
Ti 16.8405 -0.0624133 2.9008
Ti 17.4212 2.82105 2.9008
Ti 20.3248 3.29123 2.9008
Ti 13.937 -0.532589 5.92239e-16
Ti 16.8405 -0.0624133 7.40299e-16
Ti 17.4212 2.82105 8.88359e-16
Ti 20.3248 3.29123 1.03642e-15
Ti 19.1634 1.01109 4.3512
Ti 19.1634 1.01109 1.4504
48
Model 2
Ti 1.16142 2.28014 4.3512
Ti 1.74212 5.16361 4.3512
Ti 4.64566 5.63379 4.3512
Ti 1.16142 2.28014 1.4504
Ti 1.74212 5.16361 1.4504
Ti 4.64566 5.63379 1.4504
Ti -1.27974e-16 -1.23177e-16 2.9008
Ti 2.90354 0.470176 2.9008
Ti 3.48425 3.35364 2.9008
Ti 6.38779 3.82382 2.9008
Ti 0 0 0
Ti 2.90354 0.470176 1.4806e-16
Ti 3.48425 3.35364 2.9612e-16
Ti 6.38779 3.82382 4.44179e-16
Ti 5.22637 1.54367 4.3512
Ti 8.12991 2.01385 4.3512
Ti 8.71062 4.89732 4.3512
Ti 11.6142 5.36749 4.3512
Ti 5.22637 1.54367 1.4504
Ti 8.12991 2.01385 1.4504
Ti 8.71062 4.89732 1.4504
Ti 11.6142 5.36749 1.4504
Ti 6.96849 -0.266294 2.9008
Ti 9.87203 0.203881 2.9008
Ti 10.4527 3.08735 2.9008
Ti 13.3563 3.55752 2.9008
Ti 6.96849 -0.266294 2.9612e-16
Ti 9.87203 0.203881 4.44179e-16
Ti 10.4527 3.08735 5.92239e-16
Ti 13.3563 3.55752 7.40299e-16
Ti 12.1949 1.27738 4.3512
Ti 15.0984 1.74756 4.3512
Ti 15.6791 4.63102 4.3512
Ti 18.5827 5.1012 4.3512
Ti 12.1949 1.27738 1.4504
Ti 15.0984 1.74756 1.4504
Ti 15.6791 4.63102 1.4504
Ti 18.5827 5.1012 1.4504
Ti 13.937 -0.532589 2.9008
Ti 16.8405 -0.0624133 2.9008
Ti 17.4212 2.82105 2.9008
Ti 20.3248 3.29123 2.9008
Ti 13.937 -0.532589 5.92239e-16
Ti 16.8405 -0.0624133 7.40299e-16
Ti 17.4212 2.82105 8.88359e-16
Ti 20.3248 3.29123 1.03642e-15
Ti 19.1634 1.01109 4.3512
Ti 19.1634 1.01109 1.4504
