48
Model 1
Ti 1.0988 2.10672 4.2336
Ti 1.64821 4.8151 4.2336
Ti 4.39522 5.11686 4.2336
Ti 1.0988 2.10672 1.4112
Ti 1.64821 4.8151 1.4112
Ti 4.39522 5.11686 1.4112
Ti -1.2762e-16 -1.16537e-16 2.8224
Ti 2.74701 0.301766 2.8224
Ti 3.29641 3.01014 2.8224
Ti 6.04343 3.31191 2.8224
Ti 0 0 0
Ti 2.74701 0.301766 1.36671e-16
Ti 3.29641 3.01014 2.73341e-16
Ti 6.04343 3.31191 4.10012e-16
Ti 4.94462 1.20518 4.2336
Ti 7.69163 1.50695 4.2336
Ti 8.24104 4.21532 4.2336
Ti 10.988 4.51709 4.2336
Ti 4.94462 1.20518 1.4112
Ti 7.69163 1.50695 1.4112
Ti 8.24104 4.21532 1.4112
Ti 10.988 4.51709 1.4112
Ti 6.59283 -0.599773 2.8224
Ti 9.33984 -0.298007 2.8224
Ti 9.88924 2.41037 2.8224
Ti 12.6363 2.71213 2.8224
Ti 6.59283 -0.599773 2.73341e-16
Ti 9.33984 -0.298007 4.10012e-16
Ti 9.88924 2.41037 5.46682e-16
Ti 12.6363 2.71213 6.83353e-16
Ti 11.5375 0.605411 4.2336
Ti 14.2845 0.907177 4.2336
Ti 14.8339 3.61555 4.2336
Ti 17.5809 3.91732 4.2336
Ti 11.5375 0.605411 1.4112
Ti 14.2845 0.907177 1.4112
Ti 14.8339 3.61555 1.4112
Ti 17.5809 3.91732 1.4112
Ti 13.1857 -1.19955 2.8224
Ti 15.9327 -0.89778 2.8224
Ti 16.4821 1.81059 2.8224
Ti 19.2291 2.11236 2.8224
Ti 13.1857 -1.19955 5.46682e-16
Ti 15.9327 -0.89778 6.83353e-16
Ti 16.4821 1.81059 8.20023e-16
Ti 19.2291 2.11236 9.56694e-16
Ti 18.1303 0.00563814 4.2336
Ti 18.1303 0.00563814 1.4112
48
Model 2
Ti 1.0988 2.10672 4.2336
Ti 1.64821 4.8151 4.2336
Ti 4.39522 5.11686 4.2336
Ti 1.0988 2.10672 1.4112
Ti 1.64821 4.8151 1.4112
Ti 4.39522 5.11686 1.4112
Ti -1.2762e-16 -1.16537e-16 2.8224
Ti 2.74701 0.301766 2.8224
Ti 3.29641 3.01014 2.8224
Ti 6.04343 3.31191 2.8224
Ti 0 0 0
Ti 2.74701 0.301766 1.36671e-16
Ti 3.29641 3.01014 2.73341e-16
Ti 6.04343 3.31191 4.10012e-16
Ti 4.94462 1.20518 4.2336
Ti 7.69163 1.50695 4.2336
Ti 8.24104 4.21532 4.2336
Ti 10.988 4.51709 4.2336
Ti 4.94462 1.20518 1.4112
Ti 7.69163 1.50695 1.4112
Ti 8.24104 4.21532 1.4112
Ti 10.988 4.51709 1.4112
Ti 6.59283 -0.599773 2.8224
Ti 9.33984 -0.298007 2.8224
Ti 9.88924 2.41037 2.8224
Ti 12.6363 2.71213 2.8224
Ti 6.59283 -0.599773 2.73341e-16
Ti 9.33984 -0.298007 4.10012e-16
Ti 9.88924 2.41037 5.46682e-16
Ti 12.6363 2.71213 6.83353e-16
Ti 11.5375 0.605411 4.2336
Ti 14.2845 0.907177 4.2336
Ti 14.8339 3.61555 4.2336
Ti 17.5809 3.91732 4.2336
Ti 11.5375 0.605411 1.4112
Ti 14.2845 0.907177 1.4112
Ti 14.8339 3.61555 1.4112
Ti 17.5809 3.91732 1.4112
Ti 13.1857 -1.19955 2.8224
Ti 15.9327 -0.89778 2.8224
Ti 16.4821 1.81059 2.8224
Ti 19.2291 2.11236 2.8224
Ti 13.1857 -1.19955 5.46682e-16
Ti 15.9327 -0.89778 6.83353e-16
Ti 16.4821 1.81059 8.20023e-16
Ti 19.2291 2.11236 9.56694e-16
Ti 18.1303 0.00563814 4.2336
Ti 18.1303 0.00563814 1.4112
