48
Model 1
Ti 1.13773 2.1134 4.5864
Ti 1.7066 4.90168 4.5864
Ti 4.55094 4.99044 4.5864
Ti 1.13773 2.1134 1.5288
Ti 1.7066 4.90168 1.5288
Ti 4.55094 4.99044 1.5288
Ti -1.43153e-16 -1.20665e-16 3.0576
Ti 2.84434 0.0887527 3.0576
Ti 3.4132 2.87704 3.0576
Ti 6.25754 2.96579 3.0576
Ti 0 0 0
Ti 2.84434 0.0887527 1.36671e-16
Ti 3.4132 2.87704 2.73341e-16
Ti 6.25754 2.96579 4.10012e-16
Ti 5.11981 0.852388 4.5864
Ti 7.96414 0.94114 4.5864
Ti 8.53301 3.72942 4.5864
Ti 11.3773 3.81818 4.5864
Ti 5.11981 0.852388 1.5288
Ti 7.96414 0.94114 1.5288
Ti 8.53301 3.72942 1.5288
Ti 11.3773 3.81818 1.5288
Ti 6.82641 -1.17226 3.0576
Ti 9.67075 -1.08351 3.0576
Ti 10.2396 1.70478 3.0576
Ti 13.084 1.79353 3.0576
Ti 6.82641 -1.17226 2.73341e-16
Ti 9.67075 -1.08351 4.10012e-16
Ti 10.2396 1.70478 5.46682e-16
Ti 13.084 1.79353 6.83353e-16
Ti 11.9462 -0.319872 4.5864
Ti 14.7906 -0.231119 4.5864
Ti 15.3594 2.55716 4.5864
Ti 18.2038 2.64592 4.5864
Ti 11.9462 -0.319872 1.5288
Ti 14.7906 -0.231119 1.5288
Ti 15.3594 2.55716 1.5288
Ti 18.2038 2.64592 1.5288
Ti 13.6528 -2.34452 3.0576
Ti 16.4972 -2.25577 3.0576
Ti 17.066 0.532516 3.0576
Ti 19.9104 0.621269 3.0576
Ti 13.6528 -2.34452 5.46682e-16
Ti 16.4972 -2.25577 6.83353e-16
Ti 17.066 0.532516 8.20023e-16
Ti 19.9104 0.621269 9.56694e-16
Ti 18.7726 -1.49213 4.5864
Ti 18.7726 -1.49213 1.5288
48
Model 2
Ti 1.13773 2.1134 4.5864
Ti 1.7066 4.90168 4.5864
Ti 4.55094 4.99044 4.5864
Ti 1.13773 2.1134 1.5288
Ti 1.7066 4.90168 1.5288
Ti 4.55094 4.99044 1.5288
Ti -1.43153e-16 -1.20665e-16 3.0576
Ti 2.84434 0.0887527 3.0576
Ti 3.4132 2.87704 3.0576
Ti 6.25754 2.96579 3.0576
Ti 0 0 0
Ti 2.84434 0.0887527 1.36671e-16
Ti 3.4132 2.87704 2.73341e-16
Ti 6.25754 2.96579 4.10012e-16
Ti 5.11981 0.852388 4.5864
Ti 7.96414 0.94114 4.5864
Ti 8.53301 3.72942 4.5864
Ti 11.3773 3.81818 4.5864
Ti 5.11981 0.852388 1.5288
Ti 7.96414 0.94114 1.5288
Ti 8.53301 3.72942 1.5288
Ti 11.3773 3.81818 1.5288
Ti 6.82641 -1.17226 3.0576
Ti 9.67075 -1.08351 3.0576
Ti 10.2396 1.70478 3.0576
Ti 13.084 1.79353 3.0576
Ti 6.82641 -1.17226 2.73341e-16
Ti 9.67075 -1.08351 4.10012e-16
Ti 10.2396 1.70478 5.46682e-16
Ti 13.084 1.79353 6.83353e-16
Ti 11.9462 -0.319872 4.5864
Ti 14.7906 -0.231119 4.5864
Ti 15.3594 2.55716 4.5864
Ti 18.2038 2.64592 4.5864
Ti 11.9462 -0.319872 1.5288
Ti 14.7906 -0.231119 1.5288
Ti 15.3594 2.55716 1.5288
Ti 18.2038 2.64592 1.5288
Ti 13.6528 -2.34452 3.0576
Ti 16.4972 -2.25577 3.0576
Ti 17.066 0.532516 3.0576
Ti 19.9104 0.621269 3.0576
Ti 13.6528 -2.34452 5.46682e-16
Ti 16.4972 -2.25577 6.83353e-16
Ti 17.066 0.532516 8.20023e-16
Ti 19.9104 0.621269 9.56694e-16
Ti 18.7726 -1.49213 4.5864
Ti 18.7726 -1.49213 1.5288
