48
Model 1
Ti 1.17343 2.2255 4.5864
Ti 1.76015 5.11043 4.5864
Ti 4.69374 5.35766 4.5864
Ti 1.17343 2.2255 1.5288
Ti 1.76015 5.11043 1.5288
Ti 4.69374 5.35766 1.5288
Ti -1.39874e-16 -1.24451e-16 3.0576
Ti 2.93358 0.247232 3.0576
Ti 3.5203 3.13216 3.0576
Ti 6.45389 3.37939 3.0576
Ti 0 0 0
Ti 2.93358 0.247232 1.44263e-16
Ti 3.5203 3.13216 2.88527e-16
Ti 6.45389 3.37939 4.3279e-16
Ti 5.28045 1.15389 4.5864
Ti 8.21404 1.40112 4.5864
Ti 8.80075 4.28605 4.5864
Ti 11.7343 4.53328 4.5864
Ti 5.28045 1.15389 1.5288
Ti 8.21404 1.40112 1.5288
Ti 8.80075 4.28605 1.5288
Ti 11.7343 4.53328 1.5288
Ti 7.0406 -0.824384 3.0576
Ti 9.97419 -0.577151 3.0576
Ti 10.5609 2.30778 3.0576
Ti 13.4945 2.55501 3.0576
Ti 7.0406 -0.824384 2.88527e-16
Ti 9.97419 -0.577151 4.3279e-16
Ti 10.5609 2.30778 5.77054e-16
Ti 13.4945 2.55501 7.21317e-16
Ti 12.3211 0.329504 4.5864
Ti 15.2546 0.576736 4.5864
Ti 15.8414 3.46166 4.5864
Ti 18.7749 3.7089 4.5864
Ti 12.3211 0.329504 1.5288
Ti 15.2546 0.576736 1.5288
Ti 15.8414 3.46166 1.5288
Ti 18.7749 3.7089 1.5288
Ti 14.0812 -1.64877 3.0576
Ti 17.0148 -1.40154 3.0576
Ti 17.6015 1.48339 3.0576
Ti 20.5351 1.73062 3.0576
Ti 14.0812 -1.64877 5.77054e-16
Ti 17.0148 -1.40154 7.21317e-16
Ti 17.6015 1.48339 8.6558e-16
Ti 20.5351 1.73062 1.00984e-15
Ti 19.3617 -0.494879 4.5864
Ti 19.3617 -0.494879 1.5288
48
Model 2
Ti 1.17343 2.2255 4.5864
Ti 1.76015 5.11043 4.5864
Ti 4.69374 5.35766 4.5864
Ti 1.17343 2.2255 1.5288
Ti 1.76015 5.11043 1.5288
Ti 4.69374 5.35766 1.5288
Ti -1.39874e-16 -1.24451e-16 3.0576
Ti 2.93358 0.247232 3.0576
Ti 3.5203 3.13216 3.0576
Ti 6.45389 3.37939 3.0576
Ti 0 0 0
Ti 2.93358 0.247232 1.44263e-16
Ti 3.5203 3.13216 2.88527e-16
Ti 6.45389 3.37939 4.3279e-16
Ti 5.28045 1.15389 4.5864
Ti 8.21404 1.40112 4.5864
Ti 8.80075 4.28605 4.5864
Ti 11.7343 4.53328 4.5864
Ti 5.28045 1.15389 1.5288
Ti 8.21404 1.40112 1.5288
Ti 8.80075 4.28605 1.5288
Ti 11.7343 4.53328 1.5288
Ti 7.0406 -0.824384 3.0576
Ti 9.97419 -0.577151 3.0576
Ti 10.5609 2.30778 3.0576
Ti 13.4945 2.55501 3.0576
Ti 7.0406 -0.824384 2.88527e-16
Ti 9.97419 -0.577151 4.3279e-16
Ti 10.5609 2.30778 5.77054e-16
Ti 13.4945 2.55501 7.21317e-16
Ti 12.3211 0.329504 4.5864
Ti 15.2546 0.576736 4.5864
Ti 15.8414 3.46166 4.5864
Ti 18.7749 3.7089 4.5864
Ti 12.3211 0.329504 1.5288
Ti 15.2546 0.576736 1.5288
Ti 15.8414 3.46166 1.5288
Ti 18.7749 3.7089 1.5288
Ti 14.0812 -1.64877 3.0576
Ti 17.0148 -1.40154 3.0576
Ti 17.6015 1.48339 3.0576
Ti 20.5351 1.73062 3.0576
Ti 14.0812 -1.64877 5.77054e-16
Ti 17.0148 -1.40154 7.21317e-16
Ti 17.6015 1.48339 8.6558e-16
Ti 20.5351 1.73062 1.00984e-15
Ti 19.3617 -0.494879 4.5864
Ti 19.3617 -0.494879 1.5288
