48
Model 1
Ti 1.12534 2.1107 4.4688
Ti 1.68801 4.87182 4.4688
Ti 4.50136 5.03128 4.4688
Ti 1.12534 2.1107 1.4896
Ti 1.68801 4.87182 1.4896
Ti 4.50136 5.03128 1.4896
Ti -1.37963e-16 -1.19351e-16 2.9792
Ti 2.81335 0.159461 2.9792
Ti 3.37602 2.92058 2.9792
Ti 6.18937 3.08004 2.9792
Ti 0 0 0
Ti 2.81335 0.159461 1.36671e-16
Ti 3.37602 2.92058 2.73341e-16
Ti 6.18937 3.08004 4.10012e-16
Ti 5.06403 0.969337 4.4688
Ti 7.87738 1.1288 4.4688
Ti 8.44005 3.88992 4.4688
Ti 11.2534 4.04938 4.4688
Ti 5.06403 0.969337 1.4896
Ti 7.87738 1.1288 1.4896
Ti 8.44005 3.88992 1.4896
Ti 11.2534 4.04938 1.4896
Ti 6.75204 -0.981905 2.9792
Ti 9.56539 -0.822444 2.9792
Ti 10.1281 1.93867 2.9792
Ti 12.9414 2.09814 2.9792
Ti 6.75204 -0.981905 2.73341e-16
Ti 9.56539 -0.822444 4.10012e-16
Ti 10.1281 1.93867 5.46682e-16
Ti 12.9414 2.09814 6.83353e-16
Ti 11.8161 -0.0125684 4.4688
Ti 14.6294 0.146893 4.4688
Ti 15.1921 2.90801 4.4688
Ti 18.0054 3.06747 4.4688
Ti 11.8161 -0.0125684 1.4896
Ti 14.6294 0.146893 1.4896
Ti 15.1921 2.90801 1.4896
Ti 18.0054 3.06747 1.4896
Ti 13.5041 -1.96381 2.9792
Ti 16.3174 -1.80435 2.9792
Ti 16.8801 0.956769 2.9792
Ti 19.6935 1.11623 2.9792
Ti 13.5041 -1.96381 5.46682e-16
Ti 16.3174 -1.80435 6.83353e-16
Ti 16.8801 0.956769 8.20023e-16
Ti 19.6935 1.11623 9.56694e-16
Ti 18.5681 -0.994474 4.4688
Ti 18.5681 -0.994474 1.4896
48
Model 2
Ti 1.12534 2.1107 4.4688
Ti 1.68801 4.87182 4.4688
Ti 4.50136 5.03128 4.4688
Ti 1.12534 2.1107 1.4896
Ti 1.68801 4.87182 1.4896
Ti 4.50136 5.03128 1.4896
Ti -1.37963e-16 -1.19351e-16 2.9792
Ti 2.81335 0.159461 2.9792
Ti 3.37602 2.92058 2.9792
Ti 6.18937 3.08004 2.9792
Ti 0 0 0
Ti 2.81335 0.159461 1.36671e-16
Ti 3.37602 2.92058 2.73341e-16
Ti 6.18937 3.08004 4.10012e-16
Ti 5.06403 0.969337 4.4688
Ti 7.87738 1.1288 4.4688
Ti 8.44005 3.88992 4.4688
Ti 11.2534 4.04938 4.4688
Ti 5.06403 0.969337 1.4896
Ti 7.87738 1.1288 1.4896
Ti 8.44005 3.88992 1.4896
Ti 11.2534 4.04938 1.4896
Ti 6.75204 -0.981905 2.9792
Ti 9.56539 -0.822444 2.9792
Ti 10.1281 1.93867 2.9792
Ti 12.9414 2.09814 2.9792
Ti 6.75204 -0.981905 2.73341e-16
Ti 9.56539 -0.822444 4.10012e-16
Ti 10.1281 1.93867 5.46682e-16
Ti 12.9414 2.09814 6.83353e-16
Ti 11.8161 -0.0125684 4.4688
Ti 14.6294 0.146893 4.4688
Ti 15.1921 2.90801 4.4688
Ti 18.0054 3.06747 4.4688
Ti 11.8161 -0.0125684 1.4896
Ti 14.6294 0.146893 1.4896
Ti 15.1921 2.90801 1.4896
Ti 18.0054 3.06747 1.4896
Ti 13.5041 -1.96381 2.9792
Ti 16.3174 -1.80435 2.9792
Ti 16.8801 0.956769 2.9792
Ti 19.6935 1.11623 2.9792
Ti 13.5041 -1.96381 5.46682e-16
Ti 16.3174 -1.80435 6.83353e-16
Ti 16.8801 0.956769 8.20023e-16
Ti 19.6935 1.11623 9.56694e-16
Ti 18.5681 -0.994474 4.4688
Ti 18.5681 -0.994474 1.4896
