36
Model 1
Ti 0 0 0
Ti 1.69377 0 2.32885
Ti 0 0 4.6577
Ti 1.69377 0 6.98655
Ti 0 2.9337 0
Ti 1.69377 2.9337 2.32885
Ti 0 2.9337 4.6577
Ti 1.69377 2.9337 6.98655
Ti 0 5.8674 0
Ti 1.69377 5.8674 2.32885
Ti 0 5.8674 4.6577
Ti 1.69377 5.8674 6.98655
Ti 2.54066 -1.46685 0
Ti 4.23443 -1.46685 2.32885
Ti 2.54066 -1.46685 4.6577
Ti 4.23443 -1.46685 6.98655
Ti 2.54066 1.46685 0
Ti 4.23443 1.46685 2.32885
Ti 2.54066 1.46685 4.6577
Ti 4.23443 1.46685 6.98655
Ti 2.54066 4.40055 0
Ti 4.23443 4.40055 2.32885
Ti 2.54066 4.40055 4.6577
Ti 4.23443 4.40055 6.98655
Ti 5.08132 -2.9337 0
Ti 6.77509 -2.9337 2.32885
Ti 5.08132 -2.9337 4.6577
Ti 6.77509 -2.9337 6.98655
Ti 5.08132 0 0
Ti 6.77509 0 2.32885
Ti 5.08132 0 4.6577
Ti 6.77509 0 6.98655
Ti 5.08132 2.9337 0
Ti 6.77509 2.9337 2.32885
Ti 5.08132 2.9337 4.6577
Ti 6.77509 2.9337 6.98655
36
Model 2
Ti 0 0 0
Ti 1.69377 0 2.32885
Ti 0 0 4.6577
Ti 1.69377 0 6.98655
Ti 0 2.9337 0
Ti 1.69377 2.9337 2.32885
Ti 0 2.9337 4.6577
Ti 1.69377 2.9337 6.98655
Ti 0 5.8674 0
Ti 1.69377 5.8674 2.32885
Ti 0 5.8674 4.6577
Ti 1.69377 5.8674 6.98655
Ti 2.54066 -1.46685 0
Ti 4.23443 -1.46685 2.32885
Ti 2.54066 -1.46685 4.6577
Ti 4.23443 -1.46685 6.98655
Ti 2.54066 1.46685 0
Ti 4.23443 1.46685 2.32885
Ti 2.54066 1.46685 4.6577
Ti 4.23443 1.46685 6.98655
Ti 2.54066 4.40055 0
Ti 4.23443 4.40055 2.32885
Ti 2.54066 4.40055 4.6577
Ti 4.23443 4.40055 6.98655
Ti 5.08132 -2.9337 0
Ti 6.77509 -2.9337 2.32885
Ti 5.08132 -2.9337 4.6577
Ti 6.77509 -2.9337 6.98655
Ti 5.08132 0 0
Ti 6.77509 0 2.32885
Ti 5.08132 0 4.6577
Ti 6.77509 0 6.98655
Ti 5.08132 2.9337 0
Ti 6.77509 2.9337 2.32885
Ti 5.08132 2.9337 4.6577
Ti 6.77509 2.9337 6.98655
