28
Model 1
Ti 0 2.7582 0.849051
Ti 1.24414 1.97411 3.39621
Ti 1.24414 4.73231 2.54715
Ti 0 0 0
Ti 2.48827 1.19003 0.849051
Ti 2.48827 3.94822 2.85765e-16
Ti 4.97654 5.13825 0.849051
Ti 3.73241 0.405939 3.39621
Ti 3.73241 3.16414 2.54715
Ti 6.22068 4.35416 3.39621
Ti 4.97654 2.38005 2.85765e-16
Ti 7.46481 3.57008 0.849051
Ti 6.22068 1.59596 2.54715
Ti 8.70895 2.78599 3.39621
Ti 7.46481 0.811878 2.85765e-16
Ti 9.95308 2.0019 0.849051
Ti 9.95308 4.7601 5.7153e-16
Ti 8.70895 0.0277921 2.54715
Ti 11.1972 1.21782 3.39621
Ti 11.1972 3.97601 2.54715
Ti 13.6855 5.16604 3.39621
Ti 12.4414 0.433731 0.849051
Ti 12.4414 3.19193 5.7153e-16
Ti 14.9296 4.38195 0.849051
Ti 13.6855 2.40784 2.54715
Ti 16.1738 3.59787 3.39621
Ti 14.9296 1.62376 5.7153e-16
Ti 16.1738 0.83967 2.54715
28
Model 2
Ti 0 2.7582 0.849051
Ti 1.24414 1.97411 3.39621
Ti 1.24414 4.73231 2.54715
Ti 0 0 0
Ti 2.48827 1.19003 0.849051
Ti 2.48827 3.94822 2.85765e-16
Ti 4.97654 5.13825 0.849051
Ti 3.73241 0.405939 3.39621
Ti 3.73241 3.16414 2.54715
Ti 6.22068 4.35416 3.39621
Ti 4.97654 2.38005 2.85765e-16
Ti 7.46481 3.57008 0.849051
Ti 6.22068 1.59596 2.54715
Ti 8.70895 2.78599 3.39621
Ti 7.46481 0.811878 2.85765e-16
Ti 9.95308 2.0019 0.849051
Ti 9.95308 4.7601 5.7153e-16
Ti 8.70895 0.0277921 2.54715
Ti 11.1972 1.21782 3.39621
Ti 11.1972 3.97601 2.54715
Ti 13.6855 5.16604 3.39621
Ti 12.4414 0.433731 0.849051
Ti 12.4414 3.19193 5.7153e-16
Ti 14.9296 4.38195 0.849051
Ti 13.6855 2.40784 2.54715
Ti 16.1738 3.59787 3.39621
Ti 14.9296 1.62376 5.7153e-16
Ti 16.1738 0.83967 2.54715
